data_image0
_cell_length_a       44.5501
_cell_length_b       44.5501
_cell_length_c       44.5501
_cell_angle_alpha    90
_cell_angle_beta     90
_cell_angle_gamma    90

_symmetry_space_group_name_H-M    "P 1"
_symmetry_int_tables_number       1

loop_
  _symmetry_equiv_pos_as_xyz
  'x, y, z'

loop_
  _atom_site_label
  _atom_site_occupancy
  _atom_site_fract_x
  _atom_site_fract_y
  _atom_site_fract_z
  _atom_site_thermal_displace_type
  _atom_site_B_iso_or_equiv
  _atom_site_type_symbol
  Al1      1.0000 1.00000  0.04451  0.04451  Biso   1.000  Al
  Al2      1.0000 0.04451  1.00000  0.04451  Biso   1.000  Al
  Al3      1.0000 0.04451  0.04451  1.00000  Biso   1.000  Al
  Al4      1.0000 0.00000  1.00000  0.09055  Biso   1.000  Al
  Al5      1.0000 0.00000  0.04538  0.13617  Biso   1.000  Al
  Al6      1.0000 0.04538  0.00000  0.13617  Biso   1.000  Al
  Al7      1.0000 0.04540  0.04540  0.09075  Biso   1.000  Al
  Al8      1.0000 0.00000  0.00000  0.18171  Biso   1.000  Al
  Al9      1.0000 0.00000  0.04544  0.22721  Biso   1.000  Al
  Al10     1.0000 0.04544  1.00000  0.22721  Biso   1.000  Al
  Al11     1.0000 0.04542  0.04542  0.18171  Biso   1.000  Al
  Al12     1.0000 1.00000  1.00000  0.27268  Biso   1.000  Al
  Al13     1.0000 0.00000  0.04545  0.31815  Biso   1.000  Al
  Al14     1.0000 0.04545  0.00000  0.31815  Biso   1.000  Al
  Al15     1.0000 0.04545  0.04545  0.27268  Biso   1.000  Al
  Al16     1.0000 1.00000  1.00000  0.36362  Biso   1.000  Al
  Al17     1.0000 0.00000  0.04545  0.40908  Biso   1.000  Al
  Al18     1.0000 0.04545  1.00000  0.40908  Biso   1.000  Al
  Al19     1.0000 0.04545  0.04545  0.36362  Biso   1.000  Al
  Al20     1.0000 0.00000  0.00000  0.45454  Biso   1.000  Al
  Al21     1.0000 1.00000  0.04545  0.50000  Biso   1.000  Al
  Al22     1.0000 0.04545  1.00000  0.50000  Biso   1.000  Al
  Al23     1.0000 0.04545  0.04545  0.45454  Biso   1.000  Al
  Al24     1.0000 1.00000  0.00000  0.54546  Biso   1.000  Al
  Al25     1.0000 1.00000  0.04545  0.59092  Biso   1.000  Al
  Al26     1.0000 0.04545  0.00000  0.59092  Biso   1.000  Al
  Al27     1.0000 0.04545  0.04545  0.54546  Biso   1.000  Al
  Al28     1.0000 1.00000  0.00000  0.63638  Biso   1.000  Al
  Al29     1.0000 1.00000  0.04545  0.68185  Biso   1.000  Al
  Al30     1.0000 0.04545  0.00000  0.68185  Biso   1.000  Al
  Al31     1.0000 0.04545  0.04545  0.63638  Biso   1.000  Al
  Al32     1.0000 1.00000  1.00000  0.72732  Biso   1.000  Al
  Al33     1.0000 1.00000  0.04544  0.77279  Biso   1.000  Al
  Al34     1.0000 0.04544  0.00000  0.77279  Biso   1.000  Al
  Al35     1.0000 0.04545  0.04545  0.72732  Biso   1.000  Al
  Al36     1.0000 1.00000  0.00000  0.81829  Biso   1.000  Al
  Al37     1.0000 0.00000  0.04538  0.86383  Biso   1.000  Al
  Al38     1.0000 0.04538  0.00000  0.86383  Biso   1.000  Al
  Al39     1.0000 0.04542  0.04542  0.81829  Biso   1.000  Al
  Al40     1.0000 0.00000  0.00000  0.90945  Biso   1.000  Al
  Al41     1.0000 0.00000  0.04451  0.95549  Biso   1.000  Al
  Al42     1.0000 0.04451  1.00000  0.95549  Biso   1.000  Al
  Al43     1.0000 0.04540  0.04540  0.90925  Biso   1.000  Al
  Al44     1.0000 0.00000  0.09055  0.00000  Biso   1.000  Al
  Al45     1.0000 1.00000  0.13617  0.04538  Biso   1.000  Al
  Al46     1.0000 0.04540  0.09075  0.04540  Biso   1.000  Al
  Al47     1.0000 0.04538  0.13617  0.00000  Biso   1.000  Al
  Al48     1.0000 0.00000  0.09044  0.09044  Biso   1.000  Al
  Al49     1.0000 0.00000  0.13620  0.13620  Biso   1.000  Al
  Al50     1.0000 0.04539  0.09083  0.13623  Biso   1.000  Al
  Al51     1.0000 0.04539  0.13623  0.09083  Biso   1.000  Al
  Al52     1.0000 0.00000  0.09085  0.18172  Biso   1.000  Al
  Al53     1.0000 0.00000  0.13633  0.22722  Biso   1.000  Al
  Al54     1.0000 0.04544  0.09088  0.22721  Biso   1.000  Al
  Al55     1.0000 0.04543  0.13631  0.18174  Biso   1.000  Al
  Al56     1.0000 1.00000  0.09089  0.27269  Biso   1.000  Al
  Al57     1.0000 1.00000  0.13635  0.31816  Biso   1.000  Al
  Al58     1.0000 0.04545  0.09090  0.31815  Biso   1.000  Al
  Al59     1.0000 0.04545  0.13634  0.27269  Biso   1.000  Al
  Al60     1.0000 1.00000  0.09090  0.36362  Biso   1.000  Al
  Al61     1.0000 0.00000  0.13636  0.40908  Biso   1.000  Al
  Al62     1.0000 0.04545  0.09090  0.40908  Biso   1.000  Al
  Al63     1.0000 0.04545  0.13635  0.36362  Biso   1.000  Al
  Al64     1.0000 0.00000  0.09091  0.45454  Biso   1.000  Al
  Al65     1.0000 1.00000  0.13636  0.50000  Biso   1.000  Al
  Al66     1.0000 0.04545  0.09091  0.50000  Biso   1.000  Al
  Al67     1.0000 0.04545  0.13636  0.45454  Biso   1.000  Al
  Al68     1.0000 1.00000  0.09091  0.54546  Biso   1.000  Al
  Al69     1.0000 0.00000  0.13636  0.59092  Biso   1.000  Al
  Al70     1.0000 0.04545  0.09090  0.59092  Biso   1.000  Al
  Al71     1.0000 0.04545  0.13636  0.54546  Biso   1.000  Al
  Al72     1.0000 0.00000  0.09090  0.63638  Biso   1.000  Al
  Al73     1.0000 0.00000  0.13635  0.68184  Biso   1.000  Al
  Al74     1.0000 0.04545  0.09090  0.68185  Biso   1.000  Al
  Al75     1.0000 0.04545  0.13635  0.63638  Biso   1.000  Al
  Al76     1.0000 1.00000  0.09089  0.72731  Biso   1.000  Al
  Al77     1.0000 1.00000  0.13633  0.77278  Biso   1.000  Al
  Al78     1.0000 0.04544  0.09088  0.77279  Biso   1.000  Al
  Al79     1.0000 0.04545  0.13634  0.72731  Biso   1.000  Al
  Al80     1.0000 1.00000  0.09085  0.81828  Biso   1.000  Al
  Al81     1.0000 0.00000  0.13620  0.86380  Biso   1.000  Al
  Al82     1.0000 0.04539  0.09083  0.86377  Biso   1.000  Al
  Al83     1.0000 0.04543  0.13631  0.81826  Biso   1.000  Al
  Al84     1.0000 0.00000  0.09044  0.90956  Biso   1.000  Al
  Al85     1.0000 1.00000  0.13617  0.95462  Biso   1.000  Al
  Al86     1.0000 0.04540  0.09075  0.95460  Biso   1.000  Al
  Al87     1.0000 0.04539  0.13623  0.90917  Biso   1.000  Al
  Al88     1.0000 1.00000  0.18171  0.00000  Biso   1.000  Al
  Al89     1.0000 0.00000  0.22721  0.04544  Biso   1.000  Al
  Al90     1.0000 0.04542  0.18171  0.04542  Biso   1.000  Al
  Al91     1.0000 0.04544  0.22721  0.00000  Biso   1.000  Al
  Al92     1.0000 1.00000  0.18172  0.09085  Biso   1.000  Al
  Al93     1.0000 0.00000  0.22722  0.13633  Biso   1.000  Al
  Al94     1.0000 0.04543  0.18174  0.13631  Biso   1.000  Al
  Al95     1.0000 0.04544  0.22721  0.09088  Biso   1.000  Al
  Al96     1.0000 1.00000  0.18175  0.18175  Biso   1.000  Al
  Al97     1.0000 1.00000  0.22724  0.22724  Biso   1.000  Al
  Al98     1.0000 0.04544  0.18178  0.22723  Biso   1.000  Al
  Al99     1.0000 0.04544  0.22723  0.18178  Biso   1.000  Al
  Al100    1.0000 1.00000  0.18179  0.27269  Biso   1.000  Al
  Al101    1.0000 1.00000  0.22726  0.31816  Biso   1.000  Al
  Al102    1.0000 0.04545  0.18180  0.31816  Biso   1.000  Al
  Al103    1.0000 0.04545  0.22725  0.27270  Biso   1.000  Al
  Al104    1.0000 0.00000  0.18181  0.36362  Biso   1.000  Al
  Al105    1.0000 1.00000  0.22726  0.40908  Biso   1.000  Al
  Al106    1.0000 0.04545  0.18181  0.40908  Biso   1.000  Al
  Al107    1.0000 0.04545  0.22726  0.36362  Biso   1.000  Al
  Al108    1.0000 0.00000  0.18181  0.45454  Biso   1.000  Al
  Al109    1.0000 0.00000  0.22727  0.50000  Biso   1.000  Al
  Al110    1.0000 0.04545  0.18181  0.50000  Biso   1.000  Al
  Al111    1.0000 0.04545  0.22727  0.45454  Biso   1.000  Al
  Al112    1.0000 1.00000  0.18181  0.54546  Biso   1.000  Al
  Al113    1.0000 1.00000  0.22726  0.59092  Biso   1.000  Al
  Al114    1.0000 0.04545  0.18181  0.59092  Biso   1.000  Al
  Al115    1.0000 0.04545  0.22727  0.54546  Biso   1.000  Al
  Al116    1.0000 0.00000  0.18181  0.63638  Biso   1.000  Al
  Al117    1.0000 0.00000  0.22726  0.68184  Biso   1.000  Al
  Al118    1.0000 0.04545  0.18180  0.68184  Biso   1.000  Al
  Al119    1.0000 0.04545  0.22726  0.63638  Biso   1.000  Al
  Al120    1.0000 0.00000  0.18179  0.72731  Biso   1.000  Al
  Al121    1.0000 1.00000  0.22724  0.77276  Biso   1.000  Al
  Al122    1.0000 0.04544  0.18178  0.77277  Biso   1.000  Al
  Al123    1.0000 0.04545  0.22725  0.72730  Biso   1.000  Al
  Al124    1.0000 1.00000  0.18175  0.81825  Biso   1.000  Al
  Al125    1.0000 0.00000  0.22722  0.86367  Biso   1.000  Al
  Al126    1.0000 0.04543  0.18174  0.86369  Biso   1.000  Al
  Al127    1.0000 0.04544  0.22723  0.81822  Biso   1.000  Al
  Al128    1.0000 0.00000  0.18172  0.90915  Biso   1.000  Al
  Al129    1.0000 1.00000  0.22721  0.95456  Biso   1.000  Al
  Al130    1.0000 0.04542  0.18171  0.95458  Biso   1.000  Al
  Al131    1.0000 0.04544  0.22721  0.90912  Biso   1.000  Al
  Al132    1.0000 0.00000  0.27268  1.00000  Biso   1.000  Al
  Al133    1.0000 1.00000  0.31815  0.04545  Biso   1.000  Al
  Al134    1.0000 0.04545  0.27268  0.04545  Biso   1.000  Al
  Al135    1.0000 0.04545  0.31815  0.00000  Biso   1.000  Al
  Al136    1.0000 0.00000  0.27269  0.09089  Biso   1.000  Al
  Al137    1.0000 0.00000  0.31816  0.13635  Biso   1.000  Al
  Al138    1.0000 0.04545  0.27269  0.13634  Biso   1.000  Al
  Al139    1.0000 0.04545  0.31815  0.09090  Biso   1.000  Al
  Al140    1.0000 1.00000  0.27269  0.18179  Biso   1.000  Al
  Al141    1.0000 1.00000  0.31816  0.22726  Biso   1.000  Al
  Al142    1.0000 0.04545  0.27270  0.22725  Biso   1.000  Al
  Al143    1.0000 0.04545  0.31816  0.18180  Biso   1.000  Al
  Al144    1.0000 1.00000  0.27271  0.27271  Biso   1.000  Al
  Al145    1.0000 0.00000  0.31817  0.31817  Biso   1.000  Al
  Al146    1.0000 0.04545  0.27271  0.31817  Biso   1.000  Al
  Al147    1.0000 0.04545  0.31817  0.27271  Biso   1.000  Al
  Al148    1.0000 1.00000  0.27272  0.36362  Biso   1.000  Al
  Al149    1.0000 0.00000  0.31817  0.40908  Biso   1.000  Al
  Al150    1.0000 0.04545  0.27272  0.40908  Biso   1.000  Al
  Al151    1.0000 0.04545  0.31817  0.36363  Biso   1.000  Al
  Al152    1.0000 1.00000  0.27272  0.45454  Biso   1.000  Al
  Al153    1.0000 0.00000  0.31818  0.50000  Biso   1.000  Al
  Al154    1.0000 0.04545  0.27272  0.50000  Biso   1.000  Al
  Al155    1.0000 0.04545  0.31817  0.45454  Biso   1.000  Al
  Al156    1.0000 1.00000  0.27272  0.54546  Biso   1.000  Al
  Al157    1.0000 0.00000  0.31817  0.59092  Biso   1.000  Al
  Al158    1.0000 0.04545  0.27272  0.59092  Biso   1.000  Al
  Al159    1.0000 0.04545  0.31817  0.54546  Biso   1.000  Al
  Al160    1.0000 1.00000  0.27272  0.63638  Biso   1.000  Al
  Al161    1.0000 1.00000  0.31817  0.68183  Biso   1.000  Al
  Al162    1.0000 0.04545  0.27271  0.68183  Biso   1.000  Al
  Al163    1.0000 0.04545  0.31817  0.63637  Biso   1.000  Al
  Al164    1.0000 1.00000  0.27271  0.72729  Biso   1.000  Al
  Al165    1.0000 1.00000  0.31816  0.77274  Biso   1.000  Al
  Al166    1.0000 0.04545  0.27270  0.77275  Biso   1.000  Al
  Al167    1.0000 0.04545  0.31817  0.72729  Biso   1.000  Al
  Al168    1.0000 0.00000  0.27269  0.81821  Biso   1.000  Al
  Al169    1.0000 0.00000  0.31816  0.86365  Biso   1.000  Al
  Al170    1.0000 0.04545  0.27269  0.86366  Biso   1.000  Al
  Al171    1.0000 0.04545  0.31816  0.81820  Biso   1.000  Al
  Al172    1.0000 0.00000  0.27269  0.90911  Biso   1.000  Al
  Al173    1.0000 1.00000  0.31815  0.95455  Biso   1.000  Al
  Al174    1.0000 0.04545  0.27268  0.95455  Biso   1.000  Al
  Al175    1.0000 0.04545  0.31815  0.90910  Biso   1.000  Al
  Al176    1.0000 0.00000  0.36362  1.00000  Biso   1.000  Al
  Al177    1.0000 0.00000  0.40908  0.04545  Biso   1.000  Al
  Al178    1.0000 0.04545  0.36362  0.04545  Biso   1.000  Al
  Al179    1.0000 0.04545  0.40908  0.00000  Biso   1.000  Al
  Al180    1.0000 0.00000  0.36362  0.09090  Biso   1.000  Al
  Al181    1.0000 0.00000  0.40908  0.13636  Biso   1.000  Al
  Al182    1.0000 0.04545  0.36362  0.13635  Biso   1.000  Al
  Al183    1.0000 0.04545  0.40908  0.09090  Biso   1.000  Al
  Al184    1.0000 1.00000  0.36362  0.18181  Biso   1.000  Al
  Al185    1.0000 0.00000  0.40908  0.22726  Biso   1.000  Al
  Al186    1.0000 0.04545  0.36362  0.22726  Biso   1.000  Al
  Al187    1.0000 0.04545  0.40908  0.18181  Biso   1.000  Al
  Al188    1.0000 1.00000  0.36362  0.27272  Biso   1.000  Al
  Al189    1.0000 1.00000  0.40908  0.31817  Biso   1.000  Al
  Al190    1.0000 0.04545  0.36363  0.31817  Biso   1.000  Al
  Al191    1.0000 0.04545  0.40908  0.27272  Biso   1.000  Al
  Al192    1.0000 1.00000  0.36363  0.36363  Biso   1.000  Al
  Al193    1.0000 1.00000  0.40909  0.40909  Biso   1.000  Al
  Al194    1.0000 0.04545  0.36363  0.40909  Biso   1.000  Al
  Al195    1.0000 0.04545  0.40909  0.36363  Biso   1.000  Al
  Al196    1.0000 1.00000  0.36363  0.45454  Biso   1.000  Al
  Al197    1.0000 1.00000  0.40909  0.50000  Biso   1.000  Al
  Al198    1.0000 0.04545  0.36363  0.50000  Biso   1.000  Al
  Al199    1.0000 0.04545  0.40909  0.45454  Biso   1.000  Al
  Al200    1.0000 1.00000  0.36363  0.54546  Biso   1.000  Al
  Al201    1.0000 1.00000  0.40909  0.59091  Biso   1.000  Al
  Al202    1.0000 0.04545  0.36363  0.59091  Biso   1.000  Al
  Al203    1.0000 0.04545  0.40909  0.54546  Biso   1.000  Al
  Al204    1.0000 1.00000  0.36363  0.63637  Biso   1.000  Al
  Al205    1.0000 1.00000  0.40908  0.68183  Biso   1.000  Al
  Al206    1.0000 0.04545  0.36363  0.68183  Biso   1.000  Al
  Al207    1.0000 0.04545  0.40909  0.63637  Biso   1.000  Al
  Al208    1.0000 1.00000  0.36362  0.72728  Biso   1.000  Al
  Al209    1.0000 1.00000  0.40908  0.77274  Biso   1.000  Al
  Al210    1.0000 0.04545  0.36362  0.77274  Biso   1.000  Al
  Al211    1.0000 0.04545  0.40908  0.72728  Biso   1.000  Al
  Al212    1.0000 0.00000  0.36362  0.81819  Biso   1.000  Al
  Al213    1.0000 1.00000  0.40908  0.86364  Biso   1.000  Al
  Al214    1.0000 0.04545  0.36362  0.86365  Biso   1.000  Al
  Al215    1.0000 0.04545  0.40908  0.81819  Biso   1.000  Al
  Al216    1.0000 1.00000  0.36362  0.90910  Biso   1.000  Al
  Al217    1.0000 0.00000  0.40908  0.95455  Biso   1.000  Al
  Al218    1.0000 0.04545  0.36362  0.95455  Biso   1.000  Al
  Al219    1.0000 0.04545  0.40908  0.90910  Biso   1.000  Al
  Al220    1.0000 0.00000  0.45454  1.00000  Biso   1.000  Al
  Al221    1.0000 1.00000  0.50000  0.04545  Biso   1.000  Al
  Al222    1.0000 0.04545  0.45454  0.04545  Biso   1.000  Al
  Al223    1.0000 0.04545  0.50000  1.00000  Biso   1.000  Al
  Al224    1.0000 1.00000  0.45454  0.09091  Biso   1.000  Al
  Al225    1.0000 0.00000  0.50000  0.13636  Biso   1.000  Al
  Al226    1.0000 0.04545  0.45454  0.13636  Biso   1.000  Al
  Al227    1.0000 0.04545  0.50000  0.09091  Biso   1.000  Al
  Al228    1.0000 0.00000  0.45454  0.18181  Biso   1.000  Al
  Al229    1.0000 1.00000  0.50000  0.22727  Biso   1.000  Al
  Al230    1.0000 0.04545  0.45454  0.22727  Biso   1.000  Al
  Al231    1.0000 0.04545  0.50000  0.18181  Biso   1.000  Al
  Al232    1.0000 1.00000  0.45454  0.27272  Biso   1.000  Al
  Al233    1.0000 0.00000  0.50000  0.31818  Biso   1.000  Al
  Al234    1.0000 0.04545  0.45454  0.31817  Biso   1.000  Al
  Al235    1.0000 0.04545  0.50000  0.27272  Biso   1.000  Al
  Al236    1.0000 1.00000  0.45454  0.36363  Biso   1.000  Al
  Al237    1.0000 0.00000  0.50000  0.40909  Biso   1.000  Al
  Al238    1.0000 0.04545  0.45454  0.40909  Biso   1.000  Al
  Al239    1.0000 0.04545  0.50000  0.36363  Biso   1.000  Al
  Al240    1.0000 1.00000  0.45454  0.45454  Biso   1.000  Al
  Al241    1.0000 1.00000  0.50000  0.50000  Biso   1.000  Al
  Al242    1.0000 0.04545  0.45454  0.50000  Biso   1.000  Al
  Al243    1.0000 0.04545  0.50000  0.45454  Biso   1.000  Al
  Al244    1.0000 1.00000  0.45454  0.54546  Biso   1.000  Al
  Al245    1.0000 1.00000  0.50000  0.59091  Biso   1.000  Al
  Al246    1.0000 0.04545  0.45454  0.59091  Biso   1.000  Al
  Al247    1.0000 0.04545  0.50000  0.54546  Biso   1.000  Al
  Al248    1.0000 0.00000  0.45454  0.63637  Biso   1.000  Al
  Al249    1.0000 1.00000  0.50000  0.68182  Biso   1.000  Al
  Al250    1.0000 0.04545  0.45454  0.68183  Biso   1.000  Al
  Al251    1.0000 0.04545  0.50000  0.63637  Biso   1.000  Al
  Al252    1.0000 1.00000  0.45454  0.72728  Biso   1.000  Al
  Al253    1.0000 1.00000  0.50000  0.77273  Biso   1.000  Al
  Al254    1.0000 0.04545  0.45454  0.77273  Biso   1.000  Al
  Al255    1.0000 0.04545  0.50000  0.72728  Biso   1.000  Al
  Al256    1.0000 0.00000  0.45454  0.81819  Biso   1.000  Al
  Al257    1.0000 0.00000  0.50000  0.86364  Biso   1.000  Al
  Al258    1.0000 0.04545  0.45454  0.86364  Biso   1.000  Al
  Al259    1.0000 0.04545  0.50000  0.81819  Biso   1.000  Al
  Al260    1.0000 0.00000  0.45454  0.90909  Biso   1.000  Al
  Al261    1.0000 0.00000  0.50000  0.95455  Biso   1.000  Al
  Al262    1.0000 0.04545  0.45454  0.95455  Biso   1.000  Al
  Al263    1.0000 0.04545  0.50000  0.90909  Biso   1.000  Al
  Al264    1.0000 0.00000  0.54546  0.00000  Biso   1.000  Al
  Al265    1.0000 1.00000  0.59092  0.04545  Biso   1.000  Al
  Al266    1.0000 0.04545  0.54546  0.04545  Biso   1.000  Al
  Al267    1.0000 0.04545  0.59092  1.00000  Biso   1.000  Al
  Al268    1.0000 1.00000  0.54546  0.09091  Biso   1.000  Al
  Al269    1.0000 0.00000  0.59092  0.13636  Biso   1.000  Al
  Al270    1.0000 0.04545  0.54546  0.13636  Biso   1.000  Al
  Al271    1.0000 0.04545  0.59092  0.09090  Biso   1.000  Al
  Al272    1.0000 1.00000  0.54546  0.18181  Biso   1.000  Al
  Al273    1.0000 1.00000  0.59092  0.22726  Biso   1.000  Al
  Al274    1.0000 0.04545  0.54546  0.22727  Biso   1.000  Al
  Al275    1.0000 0.04545  0.59092  0.18181  Biso   1.000  Al
  Al276    1.0000 1.00000  0.54546  0.27272  Biso   1.000  Al
  Al277    1.0000 1.00000  0.59092  0.31817  Biso   1.000  Al
  Al278    1.0000 0.04545  0.54546  0.31817  Biso   1.000  Al
  Al279    1.0000 0.04545  0.59092  0.27272  Biso   1.000  Al
  Al280    1.0000 1.00000  0.54546  0.36363  Biso   1.000  Al
  Al281    1.0000 1.00000  0.59091  0.40909  Biso   1.000  Al
  Al282    1.0000 0.04545  0.54546  0.40909  Biso   1.000  Al
  Al283    1.0000 0.04545  0.59091  0.36363  Biso   1.000  Al
  Al284    1.0000 1.00000  0.54546  0.45454  Biso   1.000  Al
  Al285    1.0000 1.00000  0.59091  0.50000  Biso   1.000  Al
  Al286    1.0000 0.04545  0.54546  0.50000  Biso   1.000  Al
  Al287    1.0000 0.04545  0.59091  0.45454  Biso   1.000  Al
  Al288    1.0000 1.00000  0.54546  0.54546  Biso   1.000  Al
  Al289    1.0000 1.00000  0.59091  0.59091  Biso   1.000  Al
  Al290    1.0000 0.04545  0.54546  0.59091  Biso   1.000  Al
  Al291    1.0000 0.04545  0.59091  0.54546  Biso   1.000  Al
  Al292    1.0000 1.00000  0.54546  0.63637  Biso   1.000  Al
  Al293    1.0000 1.00000  0.59092  0.68183  Biso   1.000  Al
  Al294    1.0000 0.04545  0.54546  0.68183  Biso   1.000  Al
  Al295    1.0000 0.04545  0.59091  0.63637  Biso   1.000  Al
  Al296    1.0000 1.00000  0.54546  0.72728  Biso   1.000  Al
  Al297    1.0000 0.00000  0.59092  0.77274  Biso   1.000  Al
  Al298    1.0000 0.04545  0.54546  0.77273  Biso   1.000  Al
  Al299    1.0000 0.04545  0.59092  0.72728  Biso   1.000  Al
  Al300    1.0000 1.00000  0.54546  0.81819  Biso   1.000  Al
  Al301    1.0000 0.00000  0.59092  0.86364  Biso   1.000  Al
  Al302    1.0000 0.04545  0.54546  0.86364  Biso   1.000  Al
  Al303    1.0000 0.04545  0.59092  0.81819  Biso   1.000  Al
  Al304    1.0000 0.00000  0.54546  0.90909  Biso   1.000  Al
  Al305    1.0000 0.00000  0.59092  0.95455  Biso   1.000  Al
  Al306    1.0000 0.04545  0.54546  0.95455  Biso   1.000  Al
  Al307    1.0000 0.04545  0.59092  0.90910  Biso   1.000  Al
  Al308    1.0000 0.00000  0.63638  1.00000  Biso   1.000  Al
  Al309    1.0000 0.00000  0.68185  0.04545  Biso   1.000  Al
  Al310    1.0000 0.04545  0.63638  0.04545  Biso   1.000  Al
  Al311    1.0000 0.04545  0.68185  1.00000  Biso   1.000  Al
  Al312    1.0000 0.00000  0.63638  0.09090  Biso   1.000  Al
  Al313    1.0000 1.00000  0.68184  0.13635  Biso   1.000  Al
  Al314    1.0000 0.04545  0.63638  0.13635  Biso   1.000  Al
  Al315    1.0000 0.04545  0.68185  0.09090  Biso   1.000  Al
  Al316    1.0000 0.00000  0.63638  0.18181  Biso   1.000  Al
  Al317    1.0000 1.00000  0.68184  0.22726  Biso   1.000  Al
  Al318    1.0000 0.04545  0.63638  0.22726  Biso   1.000  Al
  Al319    1.0000 0.04545  0.68184  0.18180  Biso   1.000  Al
  Al320    1.0000 0.00000  0.63638  0.27272  Biso   1.000  Al
  Al321    1.0000 1.00000  0.68183  0.31817  Biso   1.000  Al
  Al322    1.0000 0.04545  0.63637  0.31817  Biso   1.000  Al
  Al323    1.0000 0.04545  0.68183  0.27271  Biso   1.000  Al
  Al324    1.0000 1.00000  0.63637  0.36363  Biso   1.000  Al
  Al325    1.0000 1.00000  0.68183  0.40908  Biso   1.000  Al
  Al326    1.0000 0.04545  0.63637  0.40909  Biso   1.000  Al
  Al327    1.0000 0.04545  0.68183  0.36363  Biso   1.000  Al
  Al328    1.0000 0.00000  0.63637  0.45454  Biso   1.000  Al
  Al329    1.0000 0.00000  0.68182  0.50000  Biso   1.000  Al
  Al330    1.0000 0.04545  0.63637  0.50000  Biso   1.000  Al
  Al331    1.0000 0.04545  0.68183  0.45454  Biso   1.000  Al
  Al332    1.0000 0.00000  0.63637  0.54546  Biso   1.000  Al
  Al333    1.0000 0.00000  0.68183  0.59092  Biso   1.000  Al
  Al334    1.0000 0.04545  0.63637  0.59091  Biso   1.000  Al
  Al335    1.0000 0.04545  0.68183  0.54546  Biso   1.000  Al
  Al336    1.0000 1.00000  0.63637  0.63637  Biso   1.000  Al
  Al337    1.0000 1.00000  0.68183  0.68183  Biso   1.000  Al
  Al338    1.0000 0.04545  0.63637  0.68183  Biso   1.000  Al
  Al339    1.0000 0.04545  0.68183  0.63637  Biso   1.000  Al
  Al340    1.0000 1.00000  0.63638  0.72728  Biso   1.000  Al
  Al341    1.0000 0.00000  0.68184  0.77274  Biso   1.000  Al
  Al342    1.0000 0.04545  0.63638  0.77274  Biso   1.000  Al
  Al343    1.0000 0.04545  0.68183  0.72729  Biso   1.000  Al
  Al344    1.0000 0.00000  0.63638  0.81819  Biso   1.000  Al
  Al345    1.0000 1.00000  0.68184  0.86365  Biso   1.000  Al
  Al346    1.0000 0.04545  0.63638  0.86365  Biso   1.000  Al
  Al347    1.0000 0.04545  0.68184  0.81820  Biso   1.000  Al
  Al348    1.0000 1.00000  0.63638  0.90910  Biso   1.000  Al
  Al349    1.0000 1.00000  0.68185  0.95455  Biso   1.000  Al
  Al350    1.0000 0.04545  0.63638  0.95455  Biso   1.000  Al
  Al351    1.0000 0.04545  0.68185  0.90910  Biso   1.000  Al
  Al352    1.0000 1.00000  0.72732  0.00000  Biso   1.000  Al
  Al353    1.0000 1.00000  0.77279  0.04544  Biso   1.000  Al
  Al354    1.0000 0.04545  0.72732  0.04545  Biso   1.000  Al
  Al355    1.0000 0.04544  0.77279  1.00000  Biso   1.000  Al
  Al356    1.0000 1.00000  0.72731  0.09089  Biso   1.000  Al
  Al357    1.0000 1.00000  0.77278  0.13633  Biso   1.000  Al
  Al358    1.0000 0.04545  0.72731  0.13634  Biso   1.000  Al
  Al359    1.0000 0.04544  0.77279  0.09088  Biso   1.000  Al
  Al360    1.0000 1.00000  0.72731  0.18179  Biso   1.000  Al
  Al361    1.0000 1.00000  0.77276  0.22724  Biso   1.000  Al
  Al362    1.0000 0.04545  0.72730  0.22725  Biso   1.000  Al
  Al363    1.0000 0.04544  0.77277  0.18178  Biso   1.000  Al
  Al364    1.0000 1.00000  0.72729  0.27271  Biso   1.000  Al
  Al365    1.0000 0.00000  0.77274  0.31816  Biso   1.000  Al
  Al366    1.0000 0.04545  0.72729  0.31817  Biso   1.000  Al
  Al367    1.0000 0.04545  0.77275  0.27270  Biso   1.000  Al
  Al368    1.0000 1.00000  0.72728  0.36362  Biso   1.000  Al
  Al369    1.0000 0.00000  0.77274  0.40908  Biso   1.000  Al
  Al370    1.0000 0.04545  0.72728  0.40908  Biso   1.000  Al
  Al371    1.0000 0.04545  0.77274  0.36362  Biso   1.000  Al
  Al372    1.0000 0.00000  0.72728  0.45454  Biso   1.000  Al
  Al373    1.0000 1.00000  0.77273  0.50000  Biso   1.000  Al
  Al374    1.0000 0.04545  0.72728  0.50000  Biso   1.000  Al
  Al375    1.0000 0.04545  0.77273  0.45454  Biso   1.000  Al
  Al376    1.0000 0.00000  0.72728  0.54546  Biso   1.000  Al
  Al377    1.0000 0.00000  0.77274  0.59092  Biso   1.000  Al
  Al378    1.0000 0.04545  0.72728  0.59092  Biso   1.000  Al
  Al379    1.0000 0.04545  0.77273  0.54546  Biso   1.000  Al
  Al380    1.0000 0.00000  0.72728  0.63638  Biso   1.000  Al
  Al381    1.0000 0.00000  0.77274  0.68184  Biso   1.000  Al
  Al382    1.0000 0.04545  0.72729  0.68183  Biso   1.000  Al
  Al383    1.0000 0.04545  0.77274  0.63638  Biso   1.000  Al
  Al384    1.0000 1.00000  0.72729  0.72729  Biso   1.000  Al
  Al385    1.0000 1.00000  0.77276  0.77276  Biso   1.000  Al
  Al386    1.0000 0.04545  0.72730  0.77275  Biso   1.000  Al
  Al387    1.0000 0.04545  0.77275  0.72730  Biso   1.000  Al
  Al388    1.0000 0.00000  0.72731  0.81821  Biso   1.000  Al
  Al389    1.0000 0.00000  0.77278  0.86367  Biso   1.000  Al
  Al390    1.0000 0.04545  0.72731  0.86366  Biso   1.000  Al
  Al391    1.0000 0.04544  0.77277  0.81822  Biso   1.000  Al
  Al392    1.0000 1.00000  0.72731  0.90911  Biso   1.000  Al
  Al393    1.0000 1.00000  0.77279  0.95456  Biso   1.000  Al
  Al394    1.0000 0.04545  0.72732  0.95455  Biso   1.000  Al
  Al395    1.0000 0.04544  0.77279  0.90912  Biso   1.000  Al
  Al396    1.0000 0.00000  0.81829  1.00000  Biso   1.000  Al
  Al397    1.0000 0.00000  0.86383  0.04538  Biso   1.000  Al
  Al398    1.0000 0.04542  0.81829  0.04542  Biso   1.000  Al
  Al399    1.0000 0.04538  0.86383  1.00000  Biso   1.000  Al
  Al400    1.0000 0.00000  0.81828  0.09085  Biso   1.000  Al
  Al401    1.0000 1.00000  0.86380  0.13620  Biso   1.000  Al
  Al402    1.0000 0.04543  0.81826  0.13631  Biso   1.000  Al
  Al403    1.0000 0.04539  0.86377  0.09083  Biso   1.000  Al
  Al404    1.0000 0.00000  0.81825  0.18175  Biso   1.000  Al
  Al405    1.0000 0.00000  0.86367  0.22722  Biso   1.000  Al
  Al406    1.0000 0.04544  0.81822  0.22723  Biso   1.000  Al
  Al407    1.0000 0.04543  0.86369  0.18174  Biso   1.000  Al
  Al408    1.0000 0.00000  0.81821  0.27269  Biso   1.000  Al
  Al409    1.0000 0.00000  0.86365  0.31816  Biso   1.000  Al
  Al410    1.0000 0.04545  0.81820  0.31816  Biso   1.000  Al
  Al411    1.0000 0.04545  0.86366  0.27269  Biso   1.000  Al
  Al412    1.0000 0.00000  0.81819  0.36362  Biso   1.000  Al
  Al413    1.0000 0.00000  0.86364  0.40908  Biso   1.000  Al
  Al414    1.0000 0.04545  0.81819  0.40908  Biso   1.000  Al
  Al415    1.0000 0.04545  0.86365  0.36362  Biso   1.000  Al
  Al416    1.0000 1.00000  0.81819  0.45454  Biso   1.000  Al
  Al417    1.0000 0.00000  0.86364  0.50000  Biso   1.000  Al
  Al418    1.0000 0.04545  0.81819  0.50000  Biso   1.000  Al
  Al419    1.0000 0.04545  0.86364  0.45454  Biso   1.000  Al
  Al420    1.0000 1.00000  0.81819  0.54546  Biso   1.000  Al
  Al421    1.0000 0.00000  0.86364  0.59092  Biso   1.000  Al
  Al422    1.0000 0.04545  0.81819  0.59092  Biso   1.000  Al
  Al423    1.0000 0.04545  0.86364  0.54546  Biso   1.000  Al
  Al424    1.0000 0.00000  0.81819  0.63638  Biso   1.000  Al
  Al425    1.0000 0.00000  0.86365  0.68184  Biso   1.000  Al
  Al426    1.0000 0.04545  0.81820  0.68184  Biso   1.000  Al
  Al427    1.0000 0.04545  0.86365  0.63638  Biso   1.000  Al
  Al428    1.0000 0.00000  0.81821  0.72731  Biso   1.000  Al
  Al429    1.0000 0.00000  0.86367  0.77278  Biso   1.000  Al
  Al430    1.0000 0.04544  0.81822  0.77277  Biso   1.000  Al
  Al431    1.0000 0.04545  0.86366  0.72731  Biso   1.000  Al
  Al432    1.0000 1.00000  0.81825  0.81825  Biso   1.000  Al
  Al433    1.0000 1.00000  0.86380  0.86380  Biso   1.000  Al
  Al434    1.0000 0.04543  0.81826  0.86369  Biso   1.000  Al
  Al435    1.0000 0.04543  0.86369  0.81826  Biso   1.000  Al
  Al436    1.0000 1.00000  0.81828  0.90915  Biso   1.000  Al
  Al437    1.0000 0.00000  0.86383  0.95462  Biso   1.000  Al
  Al438    1.0000 0.04542  0.81829  0.95458  Biso   1.000  Al
  Al439    1.0000 0.04539  0.86377  0.90917  Biso   1.000  Al
  Al440    1.0000 0.00000  0.90945  1.00000  Biso   1.000  Al
  Al441    1.0000 1.00000  0.95549  0.04451  Biso   1.000  Al
  Al442    1.0000 0.04540  0.90925  0.04540  Biso   1.000  Al
  Al443    1.0000 0.04451  0.95549  0.00000  Biso   1.000  Al
  Al444    1.0000 0.00000  0.90956  0.09044  Biso   1.000  Al
  Al445    1.0000 0.00000  0.95462  0.13617  Biso   1.000  Al
  Al446    1.0000 0.04539  0.90917  0.13623  Biso   1.000  Al
  Al447    1.0000 0.04540  0.95460  0.09075  Biso   1.000  Al
  Al448    1.0000 0.00000  0.90915  0.18172  Biso   1.000  Al
  Al449    1.0000 0.00000  0.95456  0.22721  Biso   1.000  Al
  Al450    1.0000 0.04544  0.90912  0.22721  Biso   1.000  Al
  Al451    1.0000 0.04542  0.95458  0.18171  Biso   1.000  Al
  Al452    1.0000 0.00000  0.90911  0.27269  Biso   1.000  Al
  Al453    1.0000 0.00000  0.95455  0.31815  Biso   1.000  Al
  Al454    1.0000 0.04545  0.90910  0.31815  Biso   1.000  Al
  Al455    1.0000 0.04545  0.95455  0.27268  Biso   1.000  Al
  Al456    1.0000 1.00000  0.90910  0.36362  Biso   1.000  Al
  Al457    1.0000 1.00000  0.95455  0.40908  Biso   1.000  Al
  Al458    1.0000 0.04545  0.90910  0.40908  Biso   1.000  Al
  Al459    1.0000 0.04545  0.95455  0.36362  Biso   1.000  Al
  Al460    1.0000 1.00000  0.90909  0.45454  Biso   1.000  Al
  Al461    1.0000 0.00000  0.95455  0.50000  Biso   1.000  Al
  Al462    1.0000 0.04545  0.90909  0.50000  Biso   1.000  Al
  Al463    1.0000 0.04545  0.95455  0.45454  Biso   1.000  Al
  Al464    1.0000 1.00000  0.90909  0.54546  Biso   1.000  Al
  Al465    1.0000 1.00000  0.95455  0.59092  Biso   1.000  Al
  Al466    1.0000 0.04545  0.90910  0.59092  Biso   1.000  Al
  Al467    1.0000 0.04545  0.95455  0.54546  Biso   1.000  Al
  Al468    1.0000 1.00000  0.90910  0.63638  Biso   1.000  Al
  Al469    1.0000 0.00000  0.95455  0.68185  Biso   1.000  Al
  Al470    1.0000 0.04545  0.90910  0.68185  Biso   1.000  Al
  Al471    1.0000 0.04545  0.95455  0.63638  Biso   1.000  Al
  Al472    1.0000 0.00000  0.90911  0.72731  Biso   1.000  Al
  Al473    1.0000 1.00000  0.95456  0.77279  Biso   1.000  Al
  Al474    1.0000 0.04544  0.90912  0.77279  Biso   1.000  Al
  Al475    1.0000 0.04545  0.95455  0.72732  Biso   1.000  Al
  Al476    1.0000 1.00000  0.90915  0.81828  Biso   1.000  Al
  Al477    1.0000 0.00000  0.95462  0.86383  Biso   1.000  Al
  Al478    1.0000 0.04539  0.90917  0.86377  Biso   1.000  Al
  Al479    1.0000 0.04542  0.95458  0.81829  Biso   1.000  Al
  Al480    1.0000 0.00000  0.90956  0.90956  Biso   1.000  Al
  Al481    1.0000 1.00000  0.95549  0.95549  Biso   1.000  Al
  Al482    1.0000 0.04540  0.90925  0.95460  Biso   1.000  Al
  Al483    1.0000 0.04540  0.95460  0.90925  Biso   1.000  Al
  Al484    1.0000 0.09055  0.00000  0.00000  Biso   1.000  Al
  Al485    1.0000 0.09075  0.04540  0.04540  Biso   1.000  Al
  Al486    1.0000 0.13617  1.00000  0.04538  Biso   1.000  Al
  Al487    1.0000 0.13617  0.04538  1.00000  Biso   1.000  Al
  Al488    1.0000 0.09044  0.00000  0.09044  Biso   1.000  Al
  Al489    1.0000 0.09083  0.04539  0.13623  Biso   1.000  Al
  Al490    1.0000 0.13620  0.00000  0.13620  Biso   1.000  Al
  Al491    1.0000 0.13623  0.04539  0.09083  Biso   1.000  Al
  Al492    1.0000 0.09085  0.00000  0.18172  Biso   1.000  Al
  Al493    1.0000 0.09088  0.04544  0.22721  Biso   1.000  Al
  Al494    1.0000 0.13633  1.00000  0.22722  Biso   1.000  Al
  Al495    1.0000 0.13631  0.04543  0.18174  Biso   1.000  Al
  Al496    1.0000 0.09089  1.00000  0.27269  Biso   1.000  Al
  Al497    1.0000 0.09090  0.04545  0.31815  Biso   1.000  Al
  Al498    1.0000 0.13635  1.00000  0.31816  Biso   1.000  Al
  Al499    1.0000 0.13634  0.04545  0.27269  Biso   1.000  Al
  Al500    1.0000 0.09090  0.00000  0.36362  Biso   1.000  Al
  Al501    1.0000 0.09090  0.04545  0.40908  Biso   1.000  Al
  Al502    1.0000 0.13636  1.00000  0.40908  Biso   1.000  Al
  Al503    1.0000 0.13635  0.04545  0.36362  Biso   1.000  Al
  Al504    1.0000 0.09091  0.00000  0.45454  Biso   1.000  Al
  Al505    1.0000 0.09091  0.04545  0.50000  Biso   1.000  Al
  Al506    1.0000 0.13636  1.00000  0.50000  Biso   1.000  Al
  Al507    1.0000 0.13636  0.04545  0.45454  Biso   1.000  Al
  Al508    1.0000 0.09091  0.00000  0.54546  Biso   1.000  Al
  Al509    1.0000 0.09090  0.04545  0.59092  Biso   1.000  Al
  Al510    1.0000 0.13636  1.00000  0.59092  Biso   1.000  Al
  Al511    1.0000 0.13636  0.04545  0.54546  Biso   1.000  Al
  Al512    1.0000 0.09090  1.00000  0.63638  Biso   1.000  Al
  Al513    1.0000 0.09090  0.04545  0.68185  Biso   1.000  Al
  Al514    1.0000 0.13635  1.00000  0.68184  Biso   1.000  Al
  Al515    1.0000 0.13635  0.04545  0.63638  Biso   1.000  Al
  Al516    1.0000 0.09089  1.00000  0.72731  Biso   1.000  Al
  Al517    1.0000 0.09088  0.04544  0.77279  Biso   1.000  Al
  Al518    1.0000 0.13633  1.00000  0.77278  Biso   1.000  Al
  Al519    1.0000 0.13634  0.04545  0.72731  Biso   1.000  Al
  Al520    1.0000 0.09085  0.00000  0.81828  Biso   1.000  Al
  Al521    1.0000 0.09083  0.04539  0.86377  Biso   1.000  Al
  Al522    1.0000 0.13620  1.00000  0.86380  Biso   1.000  Al
  Al523    1.0000 0.13631  0.04543  0.81826  Biso   1.000  Al
  Al524    1.0000 0.09044  0.00000  0.90956  Biso   1.000  Al
  Al525    1.0000 0.09075  0.04540  0.95460  Biso   1.000  Al
  Al526    1.0000 0.13617  1.00000  0.95462  Biso   1.000  Al
  Al527    1.0000 0.13623  0.04539  0.90917  Biso   1.000  Al
  Al528    1.0000 0.09044  0.09044  0.00000  Biso   1.000  Al
  Al529    1.0000 0.09083  0.13623  0.04539  Biso   1.000  Al
  Al530    1.0000 0.13623  0.09083  0.04539  Biso   1.000  Al
  Al531    1.0000 0.13620  0.13620  1.00000  Biso   1.000  Al
  Al532    1.0000 0.09086  0.09086  0.09086  Biso   1.000  Al
  Al533    1.0000 0.09087  0.13631  0.13631  Biso   1.000  Al
  Al534    1.0000 0.13631  0.09087  0.13631  Biso   1.000  Al
  Al535    1.0000 0.13631  0.13631  0.09087  Biso   1.000  Al
  Al536    1.0000 0.09087  0.09087  0.18174  Biso   1.000  Al
  Al537    1.0000 0.09089  0.13633  0.22723  Biso   1.000  Al
  Al538    1.0000 0.13633  0.09089  0.22723  Biso   1.000  Al
  Al539    1.0000 0.13633  0.13633  0.18178  Biso   1.000  Al
  Al540    1.0000 0.09089  0.09089  0.27269  Biso   1.000  Al
  Al541    1.0000 0.09090  0.13635  0.31816  Biso   1.000  Al
  Al542    1.0000 0.13635  0.09090  0.31816  Biso   1.000  Al
  Al543    1.0000 0.13635  0.13635  0.27270  Biso   1.000  Al
  Al544    1.0000 0.09090  0.09090  0.36362  Biso   1.000  Al
  Al545    1.0000 0.09090  0.13636  0.40908  Biso   1.000  Al
  Al546    1.0000 0.13636  0.09090  0.40908  Biso   1.000  Al
  Al547    1.0000 0.13635  0.13635  0.36362  Biso   1.000  Al
  Al548    1.0000 0.09091  0.09091  0.45454  Biso   1.000  Al
  Al549    1.0000 0.09091  0.13636  0.50000  Biso   1.000  Al
  Al550    1.0000 0.13636  0.09091  0.50000  Biso   1.000  Al
  Al551    1.0000 0.13636  0.13636  0.45454  Biso   1.000  Al
  Al552    1.0000 0.09091  0.09091  0.54546  Biso   1.000  Al
  Al553    1.0000 0.09090  0.13636  0.59092  Biso   1.000  Al
  Al554    1.0000 0.13636  0.09090  0.59092  Biso   1.000  Al
  Al555    1.0000 0.13636  0.13636  0.54546  Biso   1.000  Al
  Al556    1.0000 0.09090  0.09090  0.63638  Biso   1.000  Al
  Al557    1.0000 0.09090  0.13635  0.68184  Biso   1.000  Al
  Al558    1.0000 0.13635  0.09090  0.68184  Biso   1.000  Al
  Al559    1.0000 0.13635  0.13635  0.63638  Biso   1.000  Al
  Al560    1.0000 0.09089  0.09089  0.72731  Biso   1.000  Al
  Al561    1.0000 0.09089  0.13633  0.77277  Biso   1.000  Al
  Al562    1.0000 0.13633  0.09089  0.77277  Biso   1.000  Al
  Al563    1.0000 0.13635  0.13635  0.72730  Biso   1.000  Al
  Al564    1.0000 0.09087  0.09087  0.81826  Biso   1.000  Al
  Al565    1.0000 0.09087  0.13631  0.86369  Biso   1.000  Al
  Al566    1.0000 0.13631  0.09087  0.86369  Biso   1.000  Al
  Al567    1.0000 0.13633  0.13633  0.81822  Biso   1.000  Al
  Al568    1.0000 0.09086  0.09086  0.90914  Biso   1.000  Al
  Al569    1.0000 0.09083  0.13623  0.95461  Biso   1.000  Al
  Al570    1.0000 0.13623  0.09083  0.95461  Biso   1.000  Al
  Al571    1.0000 0.13631  0.13631  0.90913  Biso   1.000  Al
  Al572    1.0000 0.09085  0.18172  0.00000  Biso   1.000  Al
  Al573    1.0000 0.09088  0.22721  0.04544  Biso   1.000  Al
  Al574    1.0000 0.13631  0.18174  0.04543  Biso   1.000  Al
  Al575    1.0000 0.13633  0.22722  1.00000  Biso   1.000  Al
  Al576    1.0000 0.09087  0.18174  0.09087  Biso   1.000  Al
  Al577    1.0000 0.09089  0.22723  0.13633  Biso   1.000  Al
  Al578    1.0000 0.13633  0.18178  0.13633  Biso   1.000  Al
  Al579    1.0000 0.13633  0.22723  0.09089  Biso   1.000  Al
  Al580    1.0000 0.09088  0.18178  0.18178  Biso   1.000  Al
  Al581    1.0000 0.09090  0.22724  0.22724  Biso   1.000  Al
  Al582    1.0000 0.13634  0.18179  0.22724  Biso   1.000  Al
  Al583    1.0000 0.13634  0.22724  0.18179  Biso   1.000  Al
  Al584    1.0000 0.09090  0.18180  0.27270  Biso   1.000  Al
  Al585    1.0000 0.09090  0.22726  0.31816  Biso   1.000  Al
  Al586    1.0000 0.13635  0.18180  0.31816  Biso   1.000  Al
  Al587    1.0000 0.13635  0.22725  0.27271  Biso   1.000  Al
  Al588    1.0000 0.09090  0.18181  0.36362  Biso   1.000  Al
  Al589    1.0000 0.09091  0.22726  0.40908  Biso   1.000  Al
  Al590    1.0000 0.13636  0.18181  0.40908  Biso   1.000  Al
  Al591    1.0000 0.13636  0.22726  0.36362  Biso   1.000  Al
  Al592    1.0000 0.09091  0.18181  0.45454  Biso   1.000  Al
  Al593    1.0000 0.09091  0.22727  0.50000  Biso   1.000  Al
  Al594    1.0000 0.13636  0.18181  0.50000  Biso   1.000  Al
  Al595    1.0000 0.13636  0.22727  0.45454  Biso   1.000  Al
  Al596    1.0000 0.09091  0.18181  0.54546  Biso   1.000  Al
  Al597    1.0000 0.09091  0.22726  0.59092  Biso   1.000  Al
  Al598    1.0000 0.13636  0.18181  0.59092  Biso   1.000  Al
  Al599    1.0000 0.13636  0.22727  0.54546  Biso   1.000  Al
  Al600    1.0000 0.09090  0.18181  0.63638  Biso   1.000  Al
  Al601    1.0000 0.09090  0.22726  0.68184  Biso   1.000  Al
  Al602    1.0000 0.13635  0.18180  0.68184  Biso   1.000  Al
  Al603    1.0000 0.13636  0.22726  0.63638  Biso   1.000  Al
  Al604    1.0000 0.09090  0.18180  0.72730  Biso   1.000  Al
  Al605    1.0000 0.09090  0.22724  0.77276  Biso   1.000  Al
  Al606    1.0000 0.13634  0.18179  0.77276  Biso   1.000  Al
  Al607    1.0000 0.13635  0.22725  0.72729  Biso   1.000  Al
  Al608    1.0000 0.09088  0.18178  0.81822  Biso   1.000  Al
  Al609    1.0000 0.09089  0.22723  0.86367  Biso   1.000  Al
  Al610    1.0000 0.13633  0.18178  0.86367  Biso   1.000  Al
  Al611    1.0000 0.13634  0.22724  0.81821  Biso   1.000  Al
  Al612    1.0000 0.09087  0.18174  0.90913  Biso   1.000  Al
  Al613    1.0000 0.09088  0.22721  0.95456  Biso   1.000  Al
  Al614    1.0000 0.13631  0.18174  0.95457  Biso   1.000  Al
  Al615    1.0000 0.13633  0.22723  0.90911  Biso   1.000  Al
  Al616    1.0000 0.09089  0.27269  0.00000  Biso   1.000  Al
  Al617    1.0000 0.09090  0.31815  0.04545  Biso   1.000  Al
  Al618    1.0000 0.13634  0.27269  0.04545  Biso   1.000  Al
  Al619    1.0000 0.13635  0.31816  1.00000  Biso   1.000  Al
  Al620    1.0000 0.09089  0.27269  0.09089  Biso   1.000  Al
  Al621    1.0000 0.09090  0.31816  0.13635  Biso   1.000  Al
  Al622    1.0000 0.13635  0.27270  0.13635  Biso   1.000  Al
  Al623    1.0000 0.13635  0.31816  0.09090  Biso   1.000  Al
  Al624    1.0000 0.09090  0.27270  0.18180  Biso   1.000  Al
  Al625    1.0000 0.09090  0.31816  0.22726  Biso   1.000  Al
  Al626    1.0000 0.13635  0.27271  0.22725  Biso   1.000  Al
  Al627    1.0000 0.13635  0.31816  0.18180  Biso   1.000  Al
  Al628    1.0000 0.09090  0.27271  0.27271  Biso   1.000  Al
  Al629    1.0000 0.09090  0.31817  0.31817  Biso   1.000  Al
  Al630    1.0000 0.13636  0.27271  0.31817  Biso   1.000  Al
  Al631    1.0000 0.13636  0.31817  0.27271  Biso   1.000  Al
  Al632    1.0000 0.09090  0.27272  0.36363  Biso   1.000  Al
  Al633    1.0000 0.09091  0.31817  0.40908  Biso   1.000  Al
  Al634    1.0000 0.13636  0.27272  0.40908  Biso   1.000  Al
  Al635    1.0000 0.13636  0.31817  0.36363  Biso   1.000  Al
  Al636    1.0000 0.09091  0.27272  0.45454  Biso   1.000  Al
  Al637    1.0000 0.09091  0.31818  0.50000  Biso   1.000  Al
  Al638    1.0000 0.13636  0.27272  0.50000  Biso   1.000  Al
  Al639    1.0000 0.13636  0.31818  0.45454  Biso   1.000  Al
  Al640    1.0000 0.09091  0.27272  0.54546  Biso   1.000  Al
  Al641    1.0000 0.09091  0.31817  0.59092  Biso   1.000  Al
  Al642    1.0000 0.13636  0.27272  0.59092  Biso   1.000  Al
  Al643    1.0000 0.13636  0.31818  0.54546  Biso   1.000  Al
  Al644    1.0000 0.09090  0.27272  0.63637  Biso   1.000  Al
  Al645    1.0000 0.09090  0.31817  0.68183  Biso   1.000  Al
  Al646    1.0000 0.13636  0.27271  0.68183  Biso   1.000  Al
  Al647    1.0000 0.13636  0.31817  0.63637  Biso   1.000  Al
  Al648    1.0000 0.09090  0.27271  0.72729  Biso   1.000  Al
  Al649    1.0000 0.09090  0.31816  0.77274  Biso   1.000  Al
  Al650    1.0000 0.13635  0.27271  0.77275  Biso   1.000  Al
  Al651    1.0000 0.13636  0.31817  0.72729  Biso   1.000  Al
  Al652    1.0000 0.09090  0.27270  0.81820  Biso   1.000  Al
  Al653    1.0000 0.09090  0.31816  0.86365  Biso   1.000  Al
  Al654    1.0000 0.13635  0.27270  0.86365  Biso   1.000  Al
  Al655    1.0000 0.13635  0.31816  0.81820  Biso   1.000  Al
  Al656    1.0000 0.09089  0.27269  0.90911  Biso   1.000  Al
  Al657    1.0000 0.09090  0.31815  0.95455  Biso   1.000  Al
  Al658    1.0000 0.13634  0.27269  0.95455  Biso   1.000  Al
  Al659    1.0000 0.13635  0.31816  0.90910  Biso   1.000  Al
  Al660    1.0000 0.09090  0.36362  1.00000  Biso   1.000  Al
  Al661    1.0000 0.09090  0.40908  0.04545  Biso   1.000  Al
  Al662    1.0000 0.13635  0.36362  0.04545  Biso   1.000  Al
  Al663    1.0000 0.13636  0.40908  0.00000  Biso   1.000  Al
  Al664    1.0000 0.09090  0.36362  0.09090  Biso   1.000  Al
  Al665    1.0000 0.09090  0.40908  0.13636  Biso   1.000  Al
  Al666    1.0000 0.13635  0.36362  0.13635  Biso   1.000  Al
  Al667    1.0000 0.13636  0.40908  0.09090  Biso   1.000  Al
  Al668    1.0000 0.09090  0.36362  0.18181  Biso   1.000  Al
  Al669    1.0000 0.09091  0.40908  0.22726  Biso   1.000  Al
  Al670    1.0000 0.13636  0.36362  0.22726  Biso   1.000  Al
  Al671    1.0000 0.13636  0.40908  0.18181  Biso   1.000  Al
  Al672    1.0000 0.09090  0.36363  0.27272  Biso   1.000  Al
  Al673    1.0000 0.09091  0.40908  0.31817  Biso   1.000  Al
  Al674    1.0000 0.13636  0.36363  0.31817  Biso   1.000  Al
  Al675    1.0000 0.13636  0.40908  0.27272  Biso   1.000  Al
  Al676    1.0000 0.09091  0.36363  0.36363  Biso   1.000  Al
  Al677    1.0000 0.09091  0.40909  0.40909  Biso   1.000  Al
  Al678    1.0000 0.13636  0.36363  0.40909  Biso   1.000  Al
  Al679    1.0000 0.13636  0.40909  0.36363  Biso   1.000  Al
  Al680    1.0000 0.09091  0.36363  0.45454  Biso   1.000  Al
  Al681    1.0000 0.09091  0.40909  0.50000  Biso   1.000  Al
  Al682    1.0000 0.13636  0.36363  0.50000  Biso   1.000  Al
  Al683    1.0000 0.13636  0.40909  0.45454  Biso   1.000  Al
  Al684    1.0000 0.09091  0.36363  0.54546  Biso   1.000  Al
  Al685    1.0000 0.09091  0.40909  0.59091  Biso   1.000  Al
  Al686    1.0000 0.13636  0.36363  0.59091  Biso   1.000  Al
  Al687    1.0000 0.13636  0.40909  0.54546  Biso   1.000  Al
  Al688    1.0000 0.09091  0.36363  0.63637  Biso   1.000  Al
  Al689    1.0000 0.09091  0.40908  0.68183  Biso   1.000  Al
  Al690    1.0000 0.13636  0.36363  0.68183  Biso   1.000  Al
  Al691    1.0000 0.13636  0.40909  0.63637  Biso   1.000  Al
  Al692    1.0000 0.09090  0.36363  0.72728  Biso   1.000  Al
  Al693    1.0000 0.09091  0.40908  0.77274  Biso   1.000  Al
  Al694    1.0000 0.13636  0.36362  0.77274  Biso   1.000  Al
  Al695    1.0000 0.13636  0.40908  0.72728  Biso   1.000  Al
  Al696    1.0000 0.09090  0.36362  0.81819  Biso   1.000  Al
  Al697    1.0000 0.09090  0.40908  0.86364  Biso   1.000  Al
  Al698    1.0000 0.13635  0.36362  0.86365  Biso   1.000  Al
  Al699    1.0000 0.13636  0.40908  0.81819  Biso   1.000  Al
  Al700    1.0000 0.09090  0.36362  0.90910  Biso   1.000  Al
  Al701    1.0000 0.09090  0.40908  0.95455  Biso   1.000  Al
  Al702    1.0000 0.13635  0.36362  0.95455  Biso   1.000  Al
  Al703    1.0000 0.13636  0.40908  0.90910  Biso   1.000  Al
  Al704    1.0000 0.09091  0.45454  1.00000  Biso   1.000  Al
  Al705    1.0000 0.09091  0.50000  0.04545  Biso   1.000  Al
  Al706    1.0000 0.13636  0.45454  0.04545  Biso   1.000  Al
  Al707    1.0000 0.13636  0.50000  1.00000  Biso   1.000  Al
  Al708    1.0000 0.09091  0.45454  0.09091  Biso   1.000  Al
  Al709    1.0000 0.09091  0.50000  0.13636  Biso   1.000  Al
  Al710    1.0000 0.13636  0.45454  0.13636  Biso   1.000  Al
  Al711    1.0000 0.13636  0.50000  0.09091  Biso   1.000  Al
  Al712    1.0000 0.09091  0.45454  0.18181  Biso   1.000  Al
  Al713    1.0000 0.09091  0.50000  0.22727  Biso   1.000  Al
  Al714    1.0000 0.13636  0.45454  0.22727  Biso   1.000  Al
  Al715    1.0000 0.13636  0.50000  0.18181  Biso   1.000  Al
  Al716    1.0000 0.09091  0.45454  0.27272  Biso   1.000  Al
  Al717    1.0000 0.09091  0.50000  0.31818  Biso   1.000  Al
  Al718    1.0000 0.13636  0.45454  0.31818  Biso   1.000  Al
  Al719    1.0000 0.13636  0.50000  0.27272  Biso   1.000  Al
  Al720    1.0000 0.09091  0.45454  0.36363  Biso   1.000  Al
  Al721    1.0000 0.09091  0.50000  0.40909  Biso   1.000  Al
  Al722    1.0000 0.13636  0.45454  0.40909  Biso   1.000  Al
  Al723    1.0000 0.13636  0.50000  0.36363  Biso   1.000  Al
  Al724    1.0000 0.09091  0.45454  0.45454  Biso   1.000  Al
  Al725    1.0000 0.09091  0.50000  0.50000  Biso   1.000  Al
  Al726    1.0000 0.13636  0.45454  0.50000  Biso   1.000  Al
  Al727    1.0000 0.13636  0.50000  0.45454  Biso   1.000  Al
  Al728    1.0000 0.09091  0.45454  0.54546  Biso   1.000  Al
  Al729    1.0000 0.09091  0.50000  0.59091  Biso   1.000  Al
  Al730    1.0000 0.13636  0.45454  0.59091  Biso   1.000  Al
  Al731    1.0000 0.13636  0.50000  0.54546  Biso   1.000  Al
  Al732    1.0000 0.09091  0.45454  0.63637  Biso   1.000  Al
  Al733    1.0000 0.09091  0.50000  0.68182  Biso   1.000  Al
  Al734    1.0000 0.13636  0.45454  0.68182  Biso   1.000  Al
  Al735    1.0000 0.13636  0.50000  0.63637  Biso   1.000  Al
  Al736    1.0000 0.09091  0.45454  0.72728  Biso   1.000  Al
  Al737    1.0000 0.09091  0.50000  0.77273  Biso   1.000  Al
  Al738    1.0000 0.13636  0.45454  0.77273  Biso   1.000  Al
  Al739    1.0000 0.13636  0.50000  0.72728  Biso   1.000  Al
  Al740    1.0000 0.09091  0.45454  0.81819  Biso   1.000  Al
  Al741    1.0000 0.09091  0.50000  0.86364  Biso   1.000  Al
  Al742    1.0000 0.13636  0.45454  0.86364  Biso   1.000  Al
  Al743    1.0000 0.13636  0.50000  0.81819  Biso   1.000  Al
  Al744    1.0000 0.09091  0.45454  0.90909  Biso   1.000  Al
  Al745    1.0000 0.09091  0.50000  0.95455  Biso   1.000  Al
  Al746    1.0000 0.13636  0.45454  0.95455  Biso   1.000  Al
  Al747    1.0000 0.13636  0.50000  0.90909  Biso   1.000  Al
  Al748    1.0000 0.09091  0.54546  1.00000  Biso   1.000  Al
  Al749    1.0000 0.09090  0.59092  0.04545  Biso   1.000  Al
  Al750    1.0000 0.13636  0.54546  0.04545  Biso   1.000  Al
  Al751    1.0000 0.13636  0.59092  0.00000  Biso   1.000  Al
  Al752    1.0000 0.09091  0.54546  0.09091  Biso   1.000  Al
  Al753    1.0000 0.09090  0.59092  0.13636  Biso   1.000  Al
  Al754    1.0000 0.13636  0.54546  0.13636  Biso   1.000  Al
  Al755    1.0000 0.13636  0.59092  0.09090  Biso   1.000  Al
  Al756    1.0000 0.09091  0.54546  0.18181  Biso   1.000  Al
  Al757    1.0000 0.09091  0.59092  0.22726  Biso   1.000  Al
  Al758    1.0000 0.13636  0.54546  0.22727  Biso   1.000  Al
  Al759    1.0000 0.13636  0.59092  0.18181  Biso   1.000  Al
  Al760    1.0000 0.09091  0.54546  0.27272  Biso   1.000  Al
  Al761    1.0000 0.09091  0.59092  0.31817  Biso   1.000  Al
  Al762    1.0000 0.13636  0.54546  0.31818  Biso   1.000  Al
  Al763    1.0000 0.13636  0.59092  0.27272  Biso   1.000  Al
  Al764    1.0000 0.09091  0.54546  0.36363  Biso   1.000  Al
  Al765    1.0000 0.09091  0.59091  0.40909  Biso   1.000  Al
  Al766    1.0000 0.13636  0.54546  0.40909  Biso   1.000  Al
  Al767    1.0000 0.13636  0.59091  0.36363  Biso   1.000  Al
  Al768    1.0000 0.09091  0.54546  0.45454  Biso   1.000  Al
  Al769    1.0000 0.09091  0.59091  0.50000  Biso   1.000  Al
  Al770    1.0000 0.13636  0.54546  0.50000  Biso   1.000  Al
  Al771    1.0000 0.13636  0.59091  0.45454  Biso   1.000  Al
  Al772    1.0000 0.09091  0.54546  0.54546  Biso   1.000  Al
  Al773    1.0000 0.09091  0.59091  0.59091  Biso   1.000  Al
  Al774    1.0000 0.13636  0.54546  0.59091  Biso   1.000  Al
  Al775    1.0000 0.13636  0.59091  0.54546  Biso   1.000  Al
  Al776    1.0000 0.09091  0.54546  0.63637  Biso   1.000  Al
  Al777    1.0000 0.09091  0.59092  0.68183  Biso   1.000  Al
  Al778    1.0000 0.13636  0.54546  0.68182  Biso   1.000  Al
  Al779    1.0000 0.13636  0.59091  0.63637  Biso   1.000  Al
  Al780    1.0000 0.09091  0.54546  0.72728  Biso   1.000  Al
  Al781    1.0000 0.09091  0.59092  0.77274  Biso   1.000  Al
  Al782    1.0000 0.13636  0.54546  0.77273  Biso   1.000  Al
  Al783    1.0000 0.13636  0.59092  0.72728  Biso   1.000  Al
  Al784    1.0000 0.09091  0.54546  0.81819  Biso   1.000  Al
  Al785    1.0000 0.09090  0.59092  0.86364  Biso   1.000  Al
  Al786    1.0000 0.13636  0.54546  0.86364  Biso   1.000  Al
  Al787    1.0000 0.13636  0.59092  0.81819  Biso   1.000  Al
  Al788    1.0000 0.09091  0.54546  0.90909  Biso   1.000  Al
  Al789    1.0000 0.09090  0.59092  0.95455  Biso   1.000  Al
  Al790    1.0000 0.13636  0.54546  0.95455  Biso   1.000  Al
  Al791    1.0000 0.13636  0.59092  0.90910  Biso   1.000  Al
  Al792    1.0000 0.09090  0.63638  0.00000  Biso   1.000  Al
  Al793    1.0000 0.09090  0.68185  0.04545  Biso   1.000  Al
  Al794    1.0000 0.13635  0.63638  0.04545  Biso   1.000  Al
  Al795    1.0000 0.13635  0.68184  1.00000  Biso   1.000  Al
  Al796    1.0000 0.09090  0.63638  0.09090  Biso   1.000  Al
  Al797    1.0000 0.09090  0.68184  0.13635  Biso   1.000  Al
  Al798    1.0000 0.13635  0.63638  0.13635  Biso   1.000  Al
  Al799    1.0000 0.13635  0.68184  0.09090  Biso   1.000  Al
  Al800    1.0000 0.09090  0.63638  0.18181  Biso   1.000  Al
  Al801    1.0000 0.09090  0.68184  0.22726  Biso   1.000  Al
  Al802    1.0000 0.13636  0.63638  0.22726  Biso   1.000  Al
  Al803    1.0000 0.13635  0.68184  0.18180  Biso   1.000  Al
  Al804    1.0000 0.09090  0.63637  0.27272  Biso   1.000  Al
  Al805    1.0000 0.09090  0.68183  0.31817  Biso   1.000  Al
  Al806    1.0000 0.13636  0.63637  0.31817  Biso   1.000  Al
  Al807    1.0000 0.13636  0.68183  0.27271  Biso   1.000  Al
  Al808    1.0000 0.09091  0.63637  0.36363  Biso   1.000  Al
  Al809    1.0000 0.09091  0.68183  0.40908  Biso   1.000  Al
  Al810    1.0000 0.13636  0.63637  0.40909  Biso   1.000  Al
  Al811    1.0000 0.13636  0.68183  0.36363  Biso   1.000  Al
  Al812    1.0000 0.09091  0.63637  0.45454  Biso   1.000  Al
  Al813    1.0000 0.09091  0.68182  0.50000  Biso   1.000  Al
  Al814    1.0000 0.13636  0.63637  0.50000  Biso   1.000  Al
  Al815    1.0000 0.13636  0.68182  0.45454  Biso   1.000  Al
  Al816    1.0000 0.09091  0.63637  0.54546  Biso   1.000  Al
  Al817    1.0000 0.09091  0.68183  0.59092  Biso   1.000  Al
  Al818    1.0000 0.13636  0.63637  0.59091  Biso   1.000  Al
  Al819    1.0000 0.13636  0.68182  0.54546  Biso   1.000  Al
  Al820    1.0000 0.09091  0.63637  0.63637  Biso   1.000  Al
  Al821    1.0000 0.09090  0.68183  0.68183  Biso   1.000  Al
  Al822    1.0000 0.13636  0.63637  0.68183  Biso   1.000  Al
  Al823    1.0000 0.13636  0.68183  0.63637  Biso   1.000  Al
  Al824    1.0000 0.09090  0.63637  0.72728  Biso   1.000  Al
  Al825    1.0000 0.09090  0.68184  0.77274  Biso   1.000  Al
  Al826    1.0000 0.13636  0.63638  0.77274  Biso   1.000  Al
  Al827    1.0000 0.13636  0.68183  0.72729  Biso   1.000  Al
  Al828    1.0000 0.09090  0.63638  0.81819  Biso   1.000  Al
  Al829    1.0000 0.09090  0.68184  0.86365  Biso   1.000  Al
  Al830    1.0000 0.13635  0.63638  0.86365  Biso   1.000  Al
  Al831    1.0000 0.13635  0.68184  0.81820  Biso   1.000  Al
  Al832    1.0000 0.09090  0.63638  0.90910  Biso   1.000  Al
  Al833    1.0000 0.09090  0.68185  0.95455  Biso   1.000  Al
  Al834    1.0000 0.13635  0.63638  0.95455  Biso   1.000  Al
  Al835    1.0000 0.13635  0.68184  0.90910  Biso   1.000  Al
  Al836    1.0000 0.09089  0.72731  0.00000  Biso   1.000  Al
  Al837    1.0000 0.09088  0.77279  0.04544  Biso   1.000  Al
  Al838    1.0000 0.13634  0.72731  0.04545  Biso   1.000  Al
  Al839    1.0000 0.13633  0.77278  0.00000  Biso   1.000  Al
  Al840    1.0000 0.09089  0.72731  0.09089  Biso   1.000  Al
  Al841    1.0000 0.09089  0.77277  0.13633  Biso   1.000  Al
  Al842    1.0000 0.13635  0.72730  0.13635  Biso   1.000  Al
  Al843    1.0000 0.13633  0.77277  0.09089  Biso   1.000  Al
  Al844    1.0000 0.09090  0.72730  0.18180  Biso   1.000  Al
  Al845    1.0000 0.09090  0.77276  0.22724  Biso   1.000  Al
  Al846    1.0000 0.13635  0.72729  0.22725  Biso   1.000  Al
  Al847    1.0000 0.13634  0.77276  0.18179  Biso   1.000  Al
  Al848    1.0000 0.09090  0.72729  0.27271  Biso   1.000  Al
  Al849    1.0000 0.09090  0.77274  0.31816  Biso   1.000  Al
  Al850    1.0000 0.13636  0.72729  0.31817  Biso   1.000  Al
  Al851    1.0000 0.13635  0.77275  0.27271  Biso   1.000  Al
  Al852    1.0000 0.09090  0.72728  0.36363  Biso   1.000  Al
  Al853    1.0000 0.09091  0.77274  0.40908  Biso   1.000  Al
  Al854    1.0000 0.13636  0.72728  0.40908  Biso   1.000  Al
  Al855    1.0000 0.13636  0.77274  0.36362  Biso   1.000  Al
  Al856    1.0000 0.09091  0.72728  0.45454  Biso   1.000  Al
  Al857    1.0000 0.09091  0.77273  0.50000  Biso   1.000  Al
  Al858    1.0000 0.13636  0.72728  0.50000  Biso   1.000  Al
  Al859    1.0000 0.13636  0.77273  0.45454  Biso   1.000  Al
  Al860    1.0000 0.09091  0.72728  0.54546  Biso   1.000  Al
  Al861    1.0000 0.09091  0.77274  0.59092  Biso   1.000  Al
  Al862    1.0000 0.13636  0.72728  0.59092  Biso   1.000  Al
  Al863    1.0000 0.13636  0.77273  0.54546  Biso   1.000  Al
  Al864    1.0000 0.09090  0.72728  0.63637  Biso   1.000  Al
  Al865    1.0000 0.09090  0.77274  0.68184  Biso   1.000  Al
  Al866    1.0000 0.13636  0.72729  0.68183  Biso   1.000  Al
  Al867    1.0000 0.13636  0.77274  0.63638  Biso   1.000  Al
  Al868    1.0000 0.09090  0.72729  0.72729  Biso   1.000  Al
  Al869    1.0000 0.09090  0.77276  0.77276  Biso   1.000  Al
  Al870    1.0000 0.13635  0.72729  0.77275  Biso   1.000  Al
  Al871    1.0000 0.13635  0.77275  0.72729  Biso   1.000  Al
  Al872    1.0000 0.09090  0.72730  0.81820  Biso   1.000  Al
  Al873    1.0000 0.09089  0.77277  0.86367  Biso   1.000  Al
  Al874    1.0000 0.13635  0.72730  0.86365  Biso   1.000  Al
  Al875    1.0000 0.13634  0.77276  0.81821  Biso   1.000  Al
  Al876    1.0000 0.09089  0.72731  0.90911  Biso   1.000  Al
  Al877    1.0000 0.09088  0.77279  0.95456  Biso   1.000  Al
  Al878    1.0000 0.13634  0.72731  0.95455  Biso   1.000  Al
  Al879    1.0000 0.13633  0.77277  0.90911  Biso   1.000  Al
  Al880    1.0000 0.09085  0.81828  1.00000  Biso   1.000  Al
  Al881    1.0000 0.09083  0.86377  0.04539  Biso   1.000  Al
  Al882    1.0000 0.13631  0.81826  0.04543  Biso   1.000  Al
  Al883    1.0000 0.13620  0.86380  1.00000  Biso   1.000  Al
  Al884    1.0000 0.09087  0.81826  0.09087  Biso   1.000  Al
  Al885    1.0000 0.09087  0.86369  0.13631  Biso   1.000  Al
  Al886    1.0000 0.13633  0.81822  0.13633  Biso   1.000  Al
  Al887    1.0000 0.13631  0.86369  0.09087  Biso   1.000  Al
  Al888    1.0000 0.09088  0.81822  0.18178  Biso   1.000  Al
  Al889    1.0000 0.09089  0.86367  0.22723  Biso   1.000  Al
  Al890    1.0000 0.13634  0.81821  0.22724  Biso   1.000  Al
  Al891    1.0000 0.13633  0.86367  0.18178  Biso   1.000  Al
  Al892    1.0000 0.09090  0.81820  0.27270  Biso   1.000  Al
  Al893    1.0000 0.09090  0.86365  0.31816  Biso   1.000  Al
  Al894    1.0000 0.13635  0.81820  0.31816  Biso   1.000  Al
  Al895    1.0000 0.13635  0.86365  0.27270  Biso   1.000  Al
  Al896    1.0000 0.09090  0.81819  0.36362  Biso   1.000  Al
  Al897    1.0000 0.09090  0.86364  0.40908  Biso   1.000  Al
  Al898    1.0000 0.13636  0.81819  0.40908  Biso   1.000  Al
  Al899    1.0000 0.13635  0.86365  0.36362  Biso   1.000  Al
  Al900    1.0000 0.09091  0.81819  0.45454  Biso   1.000  Al
  Al901    1.0000 0.09091  0.86364  0.50000  Biso   1.000  Al
  Al902    1.0000 0.13636  0.81819  0.50000  Biso   1.000  Al
  Al903    1.0000 0.13636  0.86364  0.45454  Biso   1.000  Al
  Al904    1.0000 0.09091  0.81819  0.54546  Biso   1.000  Al
  Al905    1.0000 0.09090  0.86364  0.59092  Biso   1.000  Al
  Al906    1.0000 0.13636  0.81819  0.59092  Biso   1.000  Al
  Al907    1.0000 0.13636  0.86364  0.54546  Biso   1.000  Al
  Al908    1.0000 0.09090  0.81819  0.63638  Biso   1.000  Al
  Al909    1.0000 0.09090  0.86365  0.68184  Biso   1.000  Al
  Al910    1.0000 0.13635  0.81820  0.68184  Biso   1.000  Al
  Al911    1.0000 0.13635  0.86365  0.63638  Biso   1.000  Al
  Al912    1.0000 0.09090  0.81820  0.72730  Biso   1.000  Al
  Al913    1.0000 0.09089  0.86367  0.77277  Biso   1.000  Al
  Al914    1.0000 0.13634  0.81821  0.77276  Biso   1.000  Al
  Al915    1.0000 0.13635  0.86365  0.72730  Biso   1.000  Al
  Al916    1.0000 0.09088  0.81822  0.81822  Biso   1.000  Al
  Al917    1.0000 0.09087  0.86369  0.86369  Biso   1.000  Al
  Al918    1.0000 0.13633  0.81822  0.86367  Biso   1.000  Al
  Al919    1.0000 0.13633  0.86367  0.81822  Biso   1.000  Al
  Al920    1.0000 0.09087  0.81826  0.90913  Biso   1.000  Al
  Al921    1.0000 0.09083  0.86377  0.95461  Biso   1.000  Al
  Al922    1.0000 0.13631  0.81826  0.95457  Biso   1.000  Al
  Al923    1.0000 0.13631  0.86369  0.90913  Biso   1.000  Al
  Al924    1.0000 0.09044  0.90956  1.00000  Biso   1.000  Al
  Al925    1.0000 0.09075  0.95460  0.04540  Biso   1.000  Al
  Al926    1.0000 0.13623  0.90917  0.04539  Biso   1.000  Al
  Al927    1.0000 0.13617  0.95462  0.00000  Biso   1.000  Al
  Al928    1.0000 0.09086  0.90914  0.09086  Biso   1.000  Al
  Al929    1.0000 0.09083  0.95461  0.13623  Biso   1.000  Al
  Al930    1.0000 0.13631  0.90913  0.13631  Biso   1.000  Al
  Al931    1.0000 0.13623  0.95461  0.09083  Biso   1.000  Al
  Al932    1.0000 0.09087  0.90913  0.18174  Biso   1.000  Al
  Al933    1.0000 0.09088  0.95456  0.22721  Biso   1.000  Al
  Al934    1.0000 0.13633  0.90911  0.22723  Biso   1.000  Al
  Al935    1.0000 0.13631  0.95457  0.18174  Biso   1.000  Al
  Al936    1.0000 0.09089  0.90911  0.27269  Biso   1.000  Al
  Al937    1.0000 0.09090  0.95455  0.31815  Biso   1.000  Al
  Al938    1.0000 0.13635  0.90910  0.31816  Biso   1.000  Al
  Al939    1.0000 0.13634  0.95455  0.27269  Biso   1.000  Al
  Al940    1.0000 0.09090  0.90910  0.36362  Biso   1.000  Al
  Al941    1.0000 0.09090  0.95455  0.40908  Biso   1.000  Al
  Al942    1.0000 0.13636  0.90910  0.40908  Biso   1.000  Al
  Al943    1.0000 0.13635  0.95455  0.36362  Biso   1.000  Al
  Al944    1.0000 0.09091  0.90909  0.45454  Biso   1.000  Al
  Al945    1.0000 0.09091  0.95455  0.50000  Biso   1.000  Al
  Al946    1.0000 0.13636  0.90909  0.50000  Biso   1.000  Al
  Al947    1.0000 0.13636  0.95455  0.45454  Biso   1.000  Al
  Al948    1.0000 0.09091  0.90909  0.54546  Biso   1.000  Al
  Al949    1.0000 0.09090  0.95455  0.59092  Biso   1.000  Al
  Al950    1.0000 0.13636  0.90910  0.59092  Biso   1.000  Al
  Al951    1.0000 0.13636  0.95455  0.54546  Biso   1.000  Al
  Al952    1.0000 0.09090  0.90910  0.63638  Biso   1.000  Al
  Al953    1.0000 0.09090  0.95455  0.68185  Biso   1.000  Al
  Al954    1.0000 0.13635  0.90910  0.68184  Biso   1.000  Al
  Al955    1.0000 0.13635  0.95455  0.63638  Biso   1.000  Al
  Al956    1.0000 0.09089  0.90911  0.72731  Biso   1.000  Al
  Al957    1.0000 0.09088  0.95456  0.77279  Biso   1.000  Al
  Al958    1.0000 0.13633  0.90911  0.77277  Biso   1.000  Al
  Al959    1.0000 0.13634  0.95455  0.72731  Biso   1.000  Al
  Al960    1.0000 0.09087  0.90913  0.81826  Biso   1.000  Al
  Al961    1.0000 0.09083  0.95461  0.86377  Biso   1.000  Al
  Al962    1.0000 0.13631  0.90913  0.86369  Biso   1.000  Al
  Al963    1.0000 0.13631  0.95457  0.81826  Biso   1.000  Al
  Al964    1.0000 0.09086  0.90914  0.90914  Biso   1.000  Al
  Al965    1.0000 0.09075  0.95460  0.95460  Biso   1.000  Al
  Al966    1.0000 0.13623  0.90917  0.95461  Biso   1.000  Al
  Al967    1.0000 0.13623  0.95461  0.90917  Biso   1.000  Al
  Al968    1.0000 0.18171  1.00000  1.00000  Biso   1.000  Al
  Al969    1.0000 0.18171  0.04542  0.04542  Biso   1.000  Al
  Al970    1.0000 0.22721  1.00000  0.04544  Biso   1.000  Al
  Al971    1.0000 0.22721  0.04544  0.00000  Biso   1.000  Al
  Al972    1.0000 0.18172  1.00000  0.09085  Biso   1.000  Al
  Al973    1.0000 0.18174  0.04543  0.13631  Biso   1.000  Al
  Al974    1.0000 0.22722  0.00000  0.13633  Biso   1.000  Al
  Al975    1.0000 0.22721  0.04544  0.09088  Biso   1.000  Al
  Al976    1.0000 0.18175  0.00000  0.18175  Biso   1.000  Al
  Al977    1.0000 0.18178  0.04544  0.22723  Biso   1.000  Al
  Al978    1.0000 0.22724  0.00000  0.22724  Biso   1.000  Al
  Al979    1.0000 0.22723  0.04544  0.18178  Biso   1.000  Al
  Al980    1.0000 0.18179  0.00000  0.27269  Biso   1.000  Al
  Al981    1.0000 0.18180  0.04545  0.31816  Biso   1.000  Al
  Al982    1.0000 0.22726  0.00000  0.31816  Biso   1.000  Al
  Al983    1.0000 0.22725  0.04545  0.27270  Biso   1.000  Al
  Al984    1.0000 0.18181  1.00000  0.36362  Biso   1.000  Al
  Al985    1.0000 0.18181  0.04545  0.40908  Biso   1.000  Al
  Al986    1.0000 0.22726  1.00000  0.40908  Biso   1.000  Al
  Al987    1.0000 0.22726  0.04545  0.36362  Biso   1.000  Al
  Al988    1.0000 0.18181  0.00000  0.45454  Biso   1.000  Al
  Al989    1.0000 0.18181  0.04545  0.50000  Biso   1.000  Al
  Al990    1.0000 0.22727  0.00000  0.50000  Biso   1.000  Al
  Al991    1.0000 0.22727  0.04545  0.45454  Biso   1.000  Al
  Al992    1.0000 0.18181  1.00000  0.54546  Biso   1.000  Al
  Al993    1.0000 0.18181  0.04545  0.59092  Biso   1.000  Al
  Al994    1.0000 0.22726  1.00000  0.59092  Biso   1.000  Al
  Al995    1.0000 0.22727  0.04545  0.54546  Biso   1.000  Al
  Al996    1.0000 0.18181  1.00000  0.63638  Biso   1.000  Al
  Al997    1.0000 0.18180  0.04545  0.68184  Biso   1.000  Al
  Al998    1.0000 0.22726  1.00000  0.68184  Biso   1.000  Al
  Al999    1.0000 0.22726  0.04545  0.63638  Biso   1.000  Al
  Al1000   1.0000 0.18179  0.00000  0.72731  Biso   1.000  Al
  Al1001   1.0000 0.18178  0.04544  0.77277  Biso   1.000  Al
  Al1002   1.0000 0.22724  1.00000  0.77276  Biso   1.000  Al
  Al1003   1.0000 0.22725  0.04545  0.72730  Biso   1.000  Al
  Al1004   1.0000 0.18175  1.00000  0.81825  Biso   1.000  Al
  Al1005   1.0000 0.18174  0.04543  0.86369  Biso   1.000  Al
  Al1006   1.0000 0.22722  0.00000  0.86367  Biso   1.000  Al
  Al1007   1.0000 0.22723  0.04544  0.81822  Biso   1.000  Al
  Al1008   1.0000 0.18172  0.00000  0.90915  Biso   1.000  Al
  Al1009   1.0000 0.18171  0.04542  0.95458  Biso   1.000  Al
  Al1010   1.0000 0.22721  0.00000  0.95456  Biso   1.000  Al
  Al1011   1.0000 0.22721  0.04544  0.90912  Biso   1.000  Al
  Al1012   1.0000 0.18172  0.09085  0.00000  Biso   1.000  Al
  Al1013   1.0000 0.18174  0.13631  0.04543  Biso   1.000  Al
  Al1014   1.0000 0.22721  0.09088  0.04544  Biso   1.000  Al
  Al1015   1.0000 0.22722  0.13633  1.00000  Biso   1.000  Al
  Al1016   1.0000 0.18174  0.09087  0.09087  Biso   1.000  Al
  Al1017   1.0000 0.18178  0.13633  0.13633  Biso   1.000  Al
  Al1018   1.0000 0.22723  0.09089  0.13633  Biso   1.000  Al
  Al1019   1.0000 0.22723  0.13633  0.09089  Biso   1.000  Al
  Al1020   1.0000 0.18178  0.09088  0.18178  Biso   1.000  Al
  Al1021   1.0000 0.18179  0.13634  0.22724  Biso   1.000  Al
  Al1022   1.0000 0.22724  0.09090  0.22724  Biso   1.000  Al
  Al1023   1.0000 0.22724  0.13634  0.18179  Biso   1.000  Al
  Al1024   1.0000 0.18180  0.09090  0.27270  Biso   1.000  Al
  Al1025   1.0000 0.18180  0.13635  0.31816  Biso   1.000  Al
  Al1026   1.0000 0.22726  0.09090  0.31816  Biso   1.000  Al
  Al1027   1.0000 0.22725  0.13635  0.27271  Biso   1.000  Al
  Al1028   1.0000 0.18181  0.09090  0.36362  Biso   1.000  Al
  Al1029   1.0000 0.18181  0.13636  0.40908  Biso   1.000  Al
  Al1030   1.0000 0.22726  0.09091  0.40908  Biso   1.000  Al
  Al1031   1.0000 0.22726  0.13636  0.36362  Biso   1.000  Al
  Al1032   1.0000 0.18181  0.09091  0.45454  Biso   1.000  Al
  Al1033   1.0000 0.18181  0.13636  0.50000  Biso   1.000  Al
  Al1034   1.0000 0.22727  0.09091  0.50000  Biso   1.000  Al
  Al1035   1.0000 0.22727  0.13636  0.45454  Biso   1.000  Al
  Al1036   1.0000 0.18181  0.09091  0.54546  Biso   1.000  Al
  Al1037   1.0000 0.18181  0.13636  0.59092  Biso   1.000  Al
  Al1038   1.0000 0.22726  0.09091  0.59092  Biso   1.000  Al
  Al1039   1.0000 0.22727  0.13636  0.54546  Biso   1.000  Al
  Al1040   1.0000 0.18181  0.09090  0.63638  Biso   1.000  Al
  Al1041   1.0000 0.18180  0.13635  0.68184  Biso   1.000  Al
  Al1042   1.0000 0.22726  0.09090  0.68184  Biso   1.000  Al
  Al1043   1.0000 0.22726  0.13636  0.63638  Biso   1.000  Al
  Al1044   1.0000 0.18180  0.09090  0.72730  Biso   1.000  Al
  Al1045   1.0000 0.18179  0.13634  0.77276  Biso   1.000  Al
  Al1046   1.0000 0.22724  0.09090  0.77276  Biso   1.000  Al
  Al1047   1.0000 0.22725  0.13635  0.72729  Biso   1.000  Al
  Al1048   1.0000 0.18178  0.09088  0.81822  Biso   1.000  Al
  Al1049   1.0000 0.18178  0.13633  0.86367  Biso   1.000  Al
  Al1050   1.0000 0.22723  0.09089  0.86367  Biso   1.000  Al
  Al1051   1.0000 0.22724  0.13634  0.81821  Biso   1.000  Al
  Al1052   1.0000 0.18174  0.09087  0.90913  Biso   1.000  Al
  Al1053   1.0000 0.18174  0.13631  0.95457  Biso   1.000  Al
  Al1054   1.0000 0.22721  0.09088  0.95456  Biso   1.000  Al
  Al1055   1.0000 0.22723  0.13633  0.90911  Biso   1.000  Al
  Al1056   1.0000 0.18175  0.18175  1.00000  Biso   1.000  Al
  Al1057   1.0000 0.18178  0.22723  0.04544  Biso   1.000  Al
  Al1058   1.0000 0.22723  0.18178  0.04544  Biso   1.000  Al
  Al1059   1.0000 0.22724  0.22724  0.00000  Biso   1.000  Al
  Al1060   1.0000 0.18178  0.18178  0.09088  Biso   1.000  Al
  Al1061   1.0000 0.18179  0.22724  0.13634  Biso   1.000  Al
  Al1062   1.0000 0.22724  0.18179  0.13634  Biso   1.000  Al
  Al1063   1.0000 0.22724  0.22724  0.09090  Biso   1.000  Al
  Al1064   1.0000 0.18179  0.18179  0.18179  Biso   1.000  Al
  Al1065   1.0000 0.18180  0.22725  0.22725  Biso   1.000  Al
  Al1066   1.0000 0.22725  0.18180  0.22725  Biso   1.000  Al
  Al1067   1.0000 0.22725  0.22725  0.18180  Biso   1.000  Al
  Al1068   1.0000 0.18180  0.18180  0.27271  Biso   1.000  Al
  Al1069   1.0000 0.18181  0.22726  0.31817  Biso   1.000  Al
  Al1070   1.0000 0.22726  0.18181  0.31817  Biso   1.000  Al
  Al1071   1.0000 0.22726  0.22726  0.27271  Biso   1.000  Al
  Al1072   1.0000 0.18181  0.18181  0.36362  Biso   1.000  Al
  Al1073   1.0000 0.18181  0.22727  0.40908  Biso   1.000  Al
  Al1074   1.0000 0.22727  0.18181  0.40908  Biso   1.000  Al
  Al1075   1.0000 0.22726  0.22726  0.36363  Biso   1.000  Al
  Al1076   1.0000 0.18181  0.18181  0.45454  Biso   1.000  Al
  Al1077   1.0000 0.18181  0.22727  0.50000  Biso   1.000  Al
  Al1078   1.0000 0.22727  0.18181  0.50000  Biso   1.000  Al
  Al1079   1.0000 0.22727  0.22727  0.45454  Biso   1.000  Al
  Al1080   1.0000 0.18181  0.18181  0.54546  Biso   1.000  Al
  Al1081   1.0000 0.18181  0.22727  0.59092  Biso   1.000  Al
  Al1082   1.0000 0.22727  0.18181  0.59092  Biso   1.000  Al
  Al1083   1.0000 0.22727  0.22727  0.54546  Biso   1.000  Al
  Al1084   1.0000 0.18181  0.18181  0.63638  Biso   1.000  Al
  Al1085   1.0000 0.18181  0.22726  0.68183  Biso   1.000  Al
  Al1086   1.0000 0.22726  0.18181  0.68183  Biso   1.000  Al
  Al1087   1.0000 0.22726  0.22726  0.63637  Biso   1.000  Al
  Al1088   1.0000 0.18180  0.18180  0.72729  Biso   1.000  Al
  Al1089   1.0000 0.18180  0.22725  0.77275  Biso   1.000  Al
  Al1090   1.0000 0.22725  0.18180  0.77275  Biso   1.000  Al
  Al1091   1.0000 0.22726  0.22726  0.72729  Biso   1.000  Al
  Al1092   1.0000 0.18179  0.18179  0.81821  Biso   1.000  Al
  Al1093   1.0000 0.18179  0.22724  0.86366  Biso   1.000  Al
  Al1094   1.0000 0.22724  0.18179  0.86366  Biso   1.000  Al
  Al1095   1.0000 0.22725  0.22725  0.81820  Biso   1.000  Al
  Al1096   1.0000 0.18178  0.18178  0.90912  Biso   1.000  Al
  Al1097   1.0000 0.18178  0.22723  0.95456  Biso   1.000  Al
  Al1098   1.0000 0.22723  0.18178  0.95456  Biso   1.000  Al
  Al1099   1.0000 0.22724  0.22724  0.90910  Biso   1.000  Al
  Al1100   1.0000 0.18179  0.27269  1.00000  Biso   1.000  Al
  Al1101   1.0000 0.18180  0.31816  0.04545  Biso   1.000  Al
  Al1102   1.0000 0.22725  0.27270  0.04545  Biso   1.000  Al
  Al1103   1.0000 0.22726  0.31816  1.00000  Biso   1.000  Al
  Al1104   1.0000 0.18180  0.27270  0.09090  Biso   1.000  Al
  Al1105   1.0000 0.18180  0.31816  0.13635  Biso   1.000  Al
  Al1106   1.0000 0.22725  0.27271  0.13635  Biso   1.000  Al
  Al1107   1.0000 0.22726  0.31816  0.09090  Biso   1.000  Al
  Al1108   1.0000 0.18180  0.27271  0.18180  Biso   1.000  Al
  Al1109   1.0000 0.18181  0.31817  0.22726  Biso   1.000  Al
  Al1110   1.0000 0.22726  0.27271  0.22726  Biso   1.000  Al
  Al1111   1.0000 0.22726  0.31817  0.18181  Biso   1.000  Al
  Al1112   1.0000 0.18181  0.27271  0.27271  Biso   1.000  Al
  Al1113   1.0000 0.18181  0.31817  0.31817  Biso   1.000  Al
  Al1114   1.0000 0.22726  0.27272  0.31817  Biso   1.000  Al
  Al1115   1.0000 0.22726  0.31817  0.27272  Biso   1.000  Al
  Al1116   1.0000 0.18181  0.27272  0.36363  Biso   1.000  Al
  Al1117   1.0000 0.18181  0.31817  0.40909  Biso   1.000  Al
  Al1118   1.0000 0.22727  0.27272  0.40909  Biso   1.000  Al
  Al1119   1.0000 0.22727  0.31817  0.36363  Biso   1.000  Al
  Al1120   1.0000 0.18181  0.27272  0.45454  Biso   1.000  Al
  Al1121   1.0000 0.18181  0.31818  0.50000  Biso   1.000  Al
  Al1122   1.0000 0.22727  0.27272  0.50000  Biso   1.000  Al
  Al1123   1.0000 0.22727  0.31818  0.45454  Biso   1.000  Al
  Al1124   1.0000 0.18181  0.27272  0.54546  Biso   1.000  Al
  Al1125   1.0000 0.18181  0.31817  0.59091  Biso   1.000  Al
  Al1126   1.0000 0.22727  0.27272  0.59091  Biso   1.000  Al
  Al1127   1.0000 0.22727  0.31818  0.54546  Biso   1.000  Al
  Al1128   1.0000 0.18181  0.27272  0.63637  Biso   1.000  Al
  Al1129   1.0000 0.18181  0.31817  0.68183  Biso   1.000  Al
  Al1130   1.0000 0.22726  0.27272  0.68183  Biso   1.000  Al
  Al1131   1.0000 0.22727  0.31817  0.63637  Biso   1.000  Al
  Al1132   1.0000 0.18181  0.27271  0.72729  Biso   1.000  Al
  Al1133   1.0000 0.18181  0.31817  0.77274  Biso   1.000  Al
  Al1134   1.0000 0.22726  0.27271  0.77274  Biso   1.000  Al
  Al1135   1.0000 0.22726  0.31817  0.72728  Biso   1.000  Al
  Al1136   1.0000 0.18180  0.27271  0.81820  Biso   1.000  Al
  Al1137   1.0000 0.18180  0.31816  0.86365  Biso   1.000  Al
  Al1138   1.0000 0.22725  0.27271  0.86365  Biso   1.000  Al
  Al1139   1.0000 0.22726  0.31817  0.81819  Biso   1.000  Al
  Al1140   1.0000 0.18180  0.27270  0.90910  Biso   1.000  Al
  Al1141   1.0000 0.18180  0.31816  0.95455  Biso   1.000  Al
  Al1142   1.0000 0.22725  0.27270  0.95455  Biso   1.000  Al
  Al1143   1.0000 0.22726  0.31816  0.90910  Biso   1.000  Al
  Al1144   1.0000 0.18181  0.36362  1.00000  Biso   1.000  Al
  Al1145   1.0000 0.18181  0.40908  0.04545  Biso   1.000  Al
  Al1146   1.0000 0.22726  0.36362  0.04545  Biso   1.000  Al
  Al1147   1.0000 0.22726  0.40908  1.00000  Biso   1.000  Al
  Al1148   1.0000 0.18181  0.36362  0.09090  Biso   1.000  Al
  Al1149   1.0000 0.18181  0.40908  0.13636  Biso   1.000  Al
  Al1150   1.0000 0.22726  0.36362  0.13636  Biso   1.000  Al
  Al1151   1.0000 0.22726  0.40908  0.09091  Biso   1.000  Al
  Al1152   1.0000 0.18181  0.36362  0.18181  Biso   1.000  Al
  Al1153   1.0000 0.18181  0.40908  0.22727  Biso   1.000  Al
  Al1154   1.0000 0.22726  0.36363  0.22726  Biso   1.000  Al
  Al1155   1.0000 0.22727  0.40908  0.18181  Biso   1.000  Al
  Al1156   1.0000 0.18181  0.36363  0.27272  Biso   1.000  Al
  Al1157   1.0000 0.18181  0.40909  0.31817  Biso   1.000  Al
  Al1158   1.0000 0.22727  0.36363  0.31817  Biso   1.000  Al
  Al1159   1.0000 0.22727  0.40909  0.27272  Biso   1.000  Al
  Al1160   1.0000 0.18181  0.36363  0.36363  Biso   1.000  Al
  Al1161   1.0000 0.18181  0.40909  0.40909  Biso   1.000  Al
  Al1162   1.0000 0.22727  0.36363  0.40909  Biso   1.000  Al
  Al1163   1.0000 0.22727  0.40909  0.36363  Biso   1.000  Al
  Al1164   1.0000 0.18181  0.36363  0.45454  Biso   1.000  Al
  Al1165   1.0000 0.18181  0.40909  0.50000  Biso   1.000  Al
  Al1166   1.0000 0.22727  0.36363  0.50000  Biso   1.000  Al
  Al1167   1.0000 0.22727  0.40909  0.45454  Biso   1.000  Al
  Al1168   1.0000 0.18181  0.36363  0.54546  Biso   1.000  Al
  Al1169   1.0000 0.18181  0.40909  0.59091  Biso   1.000  Al
  Al1170   1.0000 0.22727  0.36363  0.59091  Biso   1.000  Al
  Al1171   1.0000 0.22727  0.40909  0.54546  Biso   1.000  Al
  Al1172   1.0000 0.18181  0.36363  0.63637  Biso   1.000  Al
  Al1173   1.0000 0.18181  0.40909  0.68183  Biso   1.000  Al
  Al1174   1.0000 0.22727  0.36363  0.68183  Biso   1.000  Al
  Al1175   1.0000 0.22727  0.40909  0.63637  Biso   1.000  Al
  Al1176   1.0000 0.18181  0.36363  0.72728  Biso   1.000  Al
  Al1177   1.0000 0.18181  0.40908  0.77273  Biso   1.000  Al
  Al1178   1.0000 0.22726  0.36363  0.77274  Biso   1.000  Al
  Al1179   1.0000 0.22727  0.40909  0.72728  Biso   1.000  Al
  Al1180   1.0000 0.18181  0.36362  0.81819  Biso   1.000  Al
  Al1181   1.0000 0.18181  0.40908  0.86364  Biso   1.000  Al
  Al1182   1.0000 0.22726  0.36362  0.86364  Biso   1.000  Al
  Al1183   1.0000 0.22727  0.40908  0.81819  Biso   1.000  Al
  Al1184   1.0000 0.18181  0.36362  0.90910  Biso   1.000  Al
  Al1185   1.0000 0.18181  0.40908  0.95455  Biso   1.000  Al
  Al1186   1.0000 0.22726  0.36362  0.95455  Biso   1.000  Al
  Al1187   1.0000 0.22726  0.40908  0.90909  Biso   1.000  Al
  Al1188   1.0000 0.18181  0.45454  0.00000  Biso   1.000  Al
  Al1189   1.0000 0.18181  0.50000  0.04545  Biso   1.000  Al
  Al1190   1.0000 0.22727  0.45454  0.04545  Biso   1.000  Al
  Al1191   1.0000 0.22727  0.50000  0.00000  Biso   1.000  Al
  Al1192   1.0000 0.18181  0.45454  0.09091  Biso   1.000  Al
  Al1193   1.0000 0.18181  0.50000  0.13636  Biso   1.000  Al
  Al1194   1.0000 0.22727  0.45454  0.13636  Biso   1.000  Al
  Al1195   1.0000 0.22727  0.50000  0.09091  Biso   1.000  Al
  Al1196   1.0000 0.18181  0.45454  0.18181  Biso   1.000  Al
  Al1197   1.0000 0.18181  0.50000  0.22727  Biso   1.000  Al
  Al1198   1.0000 0.22727  0.45454  0.22727  Biso   1.000  Al
  Al1199   1.0000 0.22727  0.50000  0.18181  Biso   1.000  Al
  Al1200   1.0000 0.18181  0.45454  0.27272  Biso   1.000  Al
  Al1201   1.0000 0.18181  0.50000  0.31818  Biso   1.000  Al
  Al1202   1.0000 0.22727  0.45454  0.31818  Biso   1.000  Al
  Al1203   1.0000 0.22727  0.50000  0.27272  Biso   1.000  Al
  Al1204   1.0000 0.18181  0.45454  0.36363  Biso   1.000  Al
  Al1205   1.0000 0.18181  0.50000  0.40909  Biso   1.000  Al
  Al1206   1.0000 0.22727  0.45454  0.40909  Biso   1.000  Al
  Al1207   1.0000 0.22727  0.50000  0.36363  Biso   1.000  Al
  Al1208   1.0000 0.18181  0.45454  0.45454  Biso   1.000  Al
  Al1209   1.0000 0.18181  0.50000  0.50000  Biso   1.000  Al
  Al1210   1.0000 0.22727  0.45454  0.50000  Biso   1.000  Al
  Al1211   1.0000 0.22727  0.50000  0.45454  Biso   1.000  Al
  Al1212   1.0000 0.18181  0.45454  0.54546  Biso   1.000  Al
  Al1213   1.0000 0.18181  0.50000  0.59091  Biso   1.000  Al
  Al1214   1.0000 0.22727  0.45454  0.59091  Biso   1.000  Al
  Al1215   1.0000 0.22727  0.50000  0.54546  Biso   1.000  Al
  Al1216   1.0000 0.18181  0.45454  0.63637  Biso   1.000  Al
  Al1217   1.0000 0.18181  0.50000  0.68182  Biso   1.000  Al
  Al1218   1.0000 0.22727  0.45454  0.68182  Biso   1.000  Al
  Al1219   1.0000 0.22727  0.50000  0.63637  Biso   1.000  Al
  Al1220   1.0000 0.18181  0.45454  0.72728  Biso   1.000  Al
  Al1221   1.0000 0.18181  0.50000  0.77273  Biso   1.000  Al
  Al1222   1.0000 0.22727  0.45454  0.77273  Biso   1.000  Al
  Al1223   1.0000 0.22727  0.50000  0.72728  Biso   1.000  Al
  Al1224   1.0000 0.18181  0.45454  0.81819  Biso   1.000  Al
  Al1225   1.0000 0.18181  0.50000  0.86364  Biso   1.000  Al
  Al1226   1.0000 0.22727  0.45454  0.86364  Biso   1.000  Al
  Al1227   1.0000 0.22727  0.50000  0.81819  Biso   1.000  Al
  Al1228   1.0000 0.18181  0.45454  0.90909  Biso   1.000  Al
  Al1229   1.0000 0.18181  0.50000  0.95455  Biso   1.000  Al
  Al1230   1.0000 0.22727  0.45454  0.95455  Biso   1.000  Al
  Al1231   1.0000 0.22727  0.50000  0.90909  Biso   1.000  Al
  Al1232   1.0000 0.18181  0.54546  1.00000  Biso   1.000  Al
  Al1233   1.0000 0.18181  0.59092  0.04545  Biso   1.000  Al
  Al1234   1.0000 0.22727  0.54546  0.04545  Biso   1.000  Al
  Al1235   1.0000 0.22726  0.59092  1.00000  Biso   1.000  Al
  Al1236   1.0000 0.18181  0.54546  0.09091  Biso   1.000  Al
  Al1237   1.0000 0.18181  0.59092  0.13636  Biso   1.000  Al
  Al1238   1.0000 0.22727  0.54546  0.13636  Biso   1.000  Al
  Al1239   1.0000 0.22726  0.59092  0.09091  Biso   1.000  Al
  Al1240   1.0000 0.18181  0.54546  0.18181  Biso   1.000  Al
  Al1241   1.0000 0.18181  0.59092  0.22727  Biso   1.000  Al
  Al1242   1.0000 0.22727  0.54546  0.22727  Biso   1.000  Al
  Al1243   1.0000 0.22727  0.59092  0.18181  Biso   1.000  Al
  Al1244   1.0000 0.18181  0.54546  0.27272  Biso   1.000  Al
  Al1245   1.0000 0.18181  0.59091  0.31817  Biso   1.000  Al
  Al1246   1.0000 0.22727  0.54546  0.31818  Biso   1.000  Al
  Al1247   1.0000 0.22727  0.59091  0.27272  Biso   1.000  Al
  Al1248   1.0000 0.18181  0.54546  0.36363  Biso   1.000  Al
  Al1249   1.0000 0.18181  0.59091  0.40909  Biso   1.000  Al
  Al1250   1.0000 0.22727  0.54546  0.40909  Biso   1.000  Al
  Al1251   1.0000 0.22727  0.59091  0.36363  Biso   1.000  Al
  Al1252   1.0000 0.18181  0.54546  0.45454  Biso   1.000  Al
  Al1253   1.0000 0.18181  0.59091  0.50000  Biso   1.000  Al
  Al1254   1.0000 0.22727  0.54546  0.50000  Biso   1.000  Al
  Al1255   1.0000 0.22727  0.59091  0.45454  Biso   1.000  Al
  Al1256   1.0000 0.18181  0.54546  0.54546  Biso   1.000  Al
  Al1257   1.0000 0.18181  0.59091  0.59091  Biso   1.000  Al
  Al1258   1.0000 0.22727  0.54546  0.59091  Biso   1.000  Al
  Al1259   1.0000 0.22727  0.59091  0.54546  Biso   1.000  Al
  Al1260   1.0000 0.18181  0.54546  0.63637  Biso   1.000  Al
  Al1261   1.0000 0.18181  0.59091  0.68183  Biso   1.000  Al
  Al1262   1.0000 0.22727  0.54546  0.68182  Biso   1.000  Al
  Al1263   1.0000 0.22727  0.59091  0.63637  Biso   1.000  Al
  Al1264   1.0000 0.18181  0.54546  0.72728  Biso   1.000  Al
  Al1265   1.0000 0.18181  0.59092  0.77273  Biso   1.000  Al
  Al1266   1.0000 0.22727  0.54546  0.77273  Biso   1.000  Al
  Al1267   1.0000 0.22727  0.59091  0.72728  Biso   1.000  Al
  Al1268   1.0000 0.18181  0.54546  0.81819  Biso   1.000  Al
  Al1269   1.0000 0.18181  0.59092  0.86364  Biso   1.000  Al
  Al1270   1.0000 0.22727  0.54546  0.86364  Biso   1.000  Al
  Al1271   1.0000 0.22727  0.59092  0.81819  Biso   1.000  Al
  Al1272   1.0000 0.18181  0.54546  0.90909  Biso   1.000  Al
  Al1273   1.0000 0.18181  0.59092  0.95455  Biso   1.000  Al
  Al1274   1.0000 0.22727  0.54546  0.95455  Biso   1.000  Al
  Al1275   1.0000 0.22726  0.59092  0.90909  Biso   1.000  Al
  Al1276   1.0000 0.18181  0.63638  0.00000  Biso   1.000  Al
  Al1277   1.0000 0.18180  0.68184  0.04545  Biso   1.000  Al
  Al1278   1.0000 0.22726  0.63638  0.04545  Biso   1.000  Al
  Al1279   1.0000 0.22726  0.68184  0.00000  Biso   1.000  Al
  Al1280   1.0000 0.18181  0.63638  0.09090  Biso   1.000  Al
  Al1281   1.0000 0.18180  0.68184  0.13635  Biso   1.000  Al
  Al1282   1.0000 0.22726  0.63638  0.13636  Biso   1.000  Al
  Al1283   1.0000 0.22726  0.68184  0.09090  Biso   1.000  Al
  Al1284   1.0000 0.18181  0.63638  0.18181  Biso   1.000  Al
  Al1285   1.0000 0.18181  0.68183  0.22726  Biso   1.000  Al
  Al1286   1.0000 0.22726  0.63637  0.22726  Biso   1.000  Al
  Al1287   1.0000 0.22726  0.68183  0.18181  Biso   1.000  Al
  Al1288   1.0000 0.18181  0.63637  0.27272  Biso   1.000  Al
  Al1289   1.0000 0.18181  0.68183  0.31817  Biso   1.000  Al
  Al1290   1.0000 0.22727  0.63637  0.31817  Biso   1.000  Al
  Al1291   1.0000 0.22726  0.68183  0.27272  Biso   1.000  Al
  Al1292   1.0000 0.18181  0.63637  0.36363  Biso   1.000  Al
  Al1293   1.0000 0.18181  0.68183  0.40909  Biso   1.000  Al
  Al1294   1.0000 0.22727  0.63637  0.40909  Biso   1.000  Al
  Al1295   1.0000 0.22727  0.68183  0.36363  Biso   1.000  Al
  Al1296   1.0000 0.18181  0.63637  0.45454  Biso   1.000  Al
  Al1297   1.0000 0.18181  0.68182  0.50000  Biso   1.000  Al
  Al1298   1.0000 0.22727  0.63637  0.50000  Biso   1.000  Al
  Al1299   1.0000 0.22727  0.68182  0.45454  Biso   1.000  Al
  Al1300   1.0000 0.18181  0.63637  0.54546  Biso   1.000  Al
  Al1301   1.0000 0.18181  0.68183  0.59091  Biso   1.000  Al
  Al1302   1.0000 0.22727  0.63637  0.59091  Biso   1.000  Al
  Al1303   1.0000 0.22727  0.68182  0.54546  Biso   1.000  Al
  Al1304   1.0000 0.18181  0.63637  0.63637  Biso   1.000  Al
  Al1305   1.0000 0.18181  0.68183  0.68183  Biso   1.000  Al
  Al1306   1.0000 0.22727  0.63637  0.68183  Biso   1.000  Al
  Al1307   1.0000 0.22727  0.68183  0.63637  Biso   1.000  Al
  Al1308   1.0000 0.18181  0.63637  0.72728  Biso   1.000  Al
  Al1309   1.0000 0.18181  0.68183  0.77274  Biso   1.000  Al
  Al1310   1.0000 0.22726  0.63637  0.77274  Biso   1.000  Al
  Al1311   1.0000 0.22726  0.68183  0.72728  Biso   1.000  Al
  Al1312   1.0000 0.18181  0.63638  0.81819  Biso   1.000  Al
  Al1313   1.0000 0.18180  0.68184  0.86365  Biso   1.000  Al
  Al1314   1.0000 0.22726  0.63638  0.86364  Biso   1.000  Al
  Al1315   1.0000 0.22726  0.68183  0.81819  Biso   1.000  Al
  Al1316   1.0000 0.18181  0.63638  0.90910  Biso   1.000  Al
  Al1317   1.0000 0.18180  0.68184  0.95455  Biso   1.000  Al
  Al1318   1.0000 0.22726  0.63638  0.95455  Biso   1.000  Al
  Al1319   1.0000 0.22726  0.68184  0.90910  Biso   1.000  Al
  Al1320   1.0000 0.18179  0.72731  0.00000  Biso   1.000  Al
  Al1321   1.0000 0.18178  0.77277  0.04544  Biso   1.000  Al
  Al1322   1.0000 0.22725  0.72730  0.04545  Biso   1.000  Al
  Al1323   1.0000 0.22724  0.77276  0.00000  Biso   1.000  Al
  Al1324   1.0000 0.18180  0.72730  0.09090  Biso   1.000  Al
  Al1325   1.0000 0.18179  0.77276  0.13634  Biso   1.000  Al
  Al1326   1.0000 0.22725  0.72729  0.13635  Biso   1.000  Al
  Al1327   1.0000 0.22724  0.77276  0.09090  Biso   1.000  Al
  Al1328   1.0000 0.18180  0.72729  0.18180  Biso   1.000  Al
  Al1329   1.0000 0.18180  0.77275  0.22725  Biso   1.000  Al
  Al1330   1.0000 0.22726  0.72729  0.22726  Biso   1.000  Al
  Al1331   1.0000 0.22725  0.77275  0.18180  Biso   1.000  Al
  Al1332   1.0000 0.18181  0.72729  0.27271  Biso   1.000  Al
  Al1333   1.0000 0.18181  0.77274  0.31817  Biso   1.000  Al
  Al1334   1.0000 0.22726  0.72728  0.31817  Biso   1.000  Al
  Al1335   1.0000 0.22726  0.77274  0.27271  Biso   1.000  Al
  Al1336   1.0000 0.18181  0.72728  0.36363  Biso   1.000  Al
  Al1337   1.0000 0.18181  0.77273  0.40908  Biso   1.000  Al
  Al1338   1.0000 0.22727  0.72728  0.40909  Biso   1.000  Al
  Al1339   1.0000 0.22726  0.77274  0.36363  Biso   1.000  Al
  Al1340   1.0000 0.18181  0.72728  0.45454  Biso   1.000  Al
  Al1341   1.0000 0.18181  0.77273  0.50000  Biso   1.000  Al
  Al1342   1.0000 0.22727  0.72728  0.50000  Biso   1.000  Al
  Al1343   1.0000 0.22727  0.77273  0.45454  Biso   1.000  Al
  Al1344   1.0000 0.18181  0.72728  0.54546  Biso   1.000  Al
  Al1345   1.0000 0.18181  0.77273  0.59092  Biso   1.000  Al
  Al1346   1.0000 0.22727  0.72728  0.59091  Biso   1.000  Al
  Al1347   1.0000 0.22727  0.77273  0.54546  Biso   1.000  Al
  Al1348   1.0000 0.18181  0.72728  0.63637  Biso   1.000  Al
  Al1349   1.0000 0.18181  0.77274  0.68183  Biso   1.000  Al
  Al1350   1.0000 0.22726  0.72728  0.68183  Biso   1.000  Al
  Al1351   1.0000 0.22726  0.77274  0.63637  Biso   1.000  Al
  Al1352   1.0000 0.18181  0.72729  0.72729  Biso   1.000  Al
  Al1353   1.0000 0.18180  0.77275  0.77275  Biso   1.000  Al
  Al1354   1.0000 0.22726  0.72729  0.77274  Biso   1.000  Al
  Al1355   1.0000 0.22726  0.77274  0.72729  Biso   1.000  Al
  Al1356   1.0000 0.18180  0.72729  0.81820  Biso   1.000  Al
  Al1357   1.0000 0.18179  0.77276  0.86366  Biso   1.000  Al
  Al1358   1.0000 0.22725  0.72729  0.86365  Biso   1.000  Al
  Al1359   1.0000 0.22725  0.77275  0.81820  Biso   1.000  Al
  Al1360   1.0000 0.18180  0.72730  0.90910  Biso   1.000  Al
  Al1361   1.0000 0.18178  0.77277  0.95456  Biso   1.000  Al
  Al1362   1.0000 0.22725  0.72730  0.95455  Biso   1.000  Al
  Al1363   1.0000 0.22724  0.77276  0.90910  Biso   1.000  Al
  Al1364   1.0000 0.18175  0.81825  1.00000  Biso   1.000  Al
  Al1365   1.0000 0.18174  0.86369  0.04543  Biso   1.000  Al
  Al1366   1.0000 0.22723  0.81822  0.04544  Biso   1.000  Al
  Al1367   1.0000 0.22722  0.86367  0.00000  Biso   1.000  Al
  Al1368   1.0000 0.18178  0.81822  0.09088  Biso   1.000  Al
  Al1369   1.0000 0.18178  0.86367  0.13633  Biso   1.000  Al
  Al1370   1.0000 0.22724  0.81821  0.13634  Biso   1.000  Al
  Al1371   1.0000 0.22723  0.86367  0.09089  Biso   1.000  Al
  Al1372   1.0000 0.18179  0.81821  0.18179  Biso   1.000  Al
  Al1373   1.0000 0.18179  0.86366  0.22724  Biso   1.000  Al
  Al1374   1.0000 0.22725  0.81820  0.22725  Biso   1.000  Al
  Al1375   1.0000 0.22724  0.86366  0.18179  Biso   1.000  Al
  Al1376   1.0000 0.18180  0.81820  0.27271  Biso   1.000  Al
  Al1377   1.0000 0.18180  0.86365  0.31816  Biso   1.000  Al
  Al1378   1.0000 0.22726  0.81819  0.31817  Biso   1.000  Al
  Al1379   1.0000 0.22725  0.86365  0.27271  Biso   1.000  Al
  Al1380   1.0000 0.18181  0.81819  0.36362  Biso   1.000  Al
  Al1381   1.0000 0.18181  0.86364  0.40908  Biso   1.000  Al
  Al1382   1.0000 0.22727  0.81819  0.40908  Biso   1.000  Al
  Al1383   1.0000 0.22726  0.86364  0.36362  Biso   1.000  Al
  Al1384   1.0000 0.18181  0.81819  0.45454  Biso   1.000  Al
  Al1385   1.0000 0.18181  0.86364  0.50000  Biso   1.000  Al
  Al1386   1.0000 0.22727  0.81819  0.50000  Biso   1.000  Al
  Al1387   1.0000 0.22727  0.86364  0.45454  Biso   1.000  Al
  Al1388   1.0000 0.18181  0.81819  0.54546  Biso   1.000  Al
  Al1389   1.0000 0.18181  0.86364  0.59092  Biso   1.000  Al
  Al1390   1.0000 0.22727  0.81819  0.59092  Biso   1.000  Al
  Al1391   1.0000 0.22727  0.86364  0.54546  Biso   1.000  Al
  Al1392   1.0000 0.18181  0.81819  0.63638  Biso   1.000  Al
  Al1393   1.0000 0.18180  0.86365  0.68184  Biso   1.000  Al
  Al1394   1.0000 0.22726  0.81819  0.68183  Biso   1.000  Al
  Al1395   1.0000 0.22726  0.86364  0.63638  Biso   1.000  Al
  Al1396   1.0000 0.18180  0.81820  0.72729  Biso   1.000  Al
  Al1397   1.0000 0.18179  0.86366  0.77276  Biso   1.000  Al
  Al1398   1.0000 0.22725  0.81820  0.77275  Biso   1.000  Al
  Al1399   1.0000 0.22725  0.86365  0.72729  Biso   1.000  Al
  Al1400   1.0000 0.18179  0.81821  0.81821  Biso   1.000  Al
  Al1401   1.0000 0.18178  0.86367  0.86367  Biso   1.000  Al
  Al1402   1.0000 0.22724  0.81821  0.86366  Biso   1.000  Al
  Al1403   1.0000 0.22724  0.86366  0.81821  Biso   1.000  Al
  Al1404   1.0000 0.18178  0.81822  0.90912  Biso   1.000  Al
  Al1405   1.0000 0.18174  0.86369  0.95457  Biso   1.000  Al
  Al1406   1.0000 0.22723  0.81822  0.95456  Biso   1.000  Al
  Al1407   1.0000 0.22723  0.86367  0.90911  Biso   1.000  Al
  Al1408   1.0000 0.18172  0.90915  1.00000  Biso   1.000  Al
  Al1409   1.0000 0.18171  0.95458  0.04542  Biso   1.000  Al
  Al1410   1.0000 0.22721  0.90912  0.04544  Biso   1.000  Al
  Al1411   1.0000 0.22721  0.95456  1.00000  Biso   1.000  Al
  Al1412   1.0000 0.18174  0.90913  0.09087  Biso   1.000  Al
  Al1413   1.0000 0.18174  0.95457  0.13631  Biso   1.000  Al
  Al1414   1.0000 0.22723  0.90911  0.13633  Biso   1.000  Al
  Al1415   1.0000 0.22721  0.95456  0.09088  Biso   1.000  Al
  Al1416   1.0000 0.18178  0.90912  0.18178  Biso   1.000  Al
  Al1417   1.0000 0.18178  0.95456  0.22723  Biso   1.000  Al
  Al1418   1.0000 0.22724  0.90910  0.22724  Biso   1.000  Al
  Al1419   1.0000 0.22723  0.95456  0.18178  Biso   1.000  Al
  Al1420   1.0000 0.18180  0.90910  0.27270  Biso   1.000  Al
  Al1421   1.0000 0.18180  0.95455  0.31816  Biso   1.000  Al
  Al1422   1.0000 0.22726  0.90910  0.31816  Biso   1.000  Al
  Al1423   1.0000 0.22725  0.95455  0.27270  Biso   1.000  Al
  Al1424   1.0000 0.18181  0.90910  0.36362  Biso   1.000  Al
  Al1425   1.0000 0.18181  0.95455  0.40908  Biso   1.000  Al
  Al1426   1.0000 0.22726  0.90909  0.40908  Biso   1.000  Al
  Al1427   1.0000 0.22726  0.95455  0.36362  Biso   1.000  Al
  Al1428   1.0000 0.18181  0.90909  0.45454  Biso   1.000  Al
  Al1429   1.0000 0.18181  0.95455  0.50000  Biso   1.000  Al
  Al1430   1.0000 0.22727  0.90909  0.50000  Biso   1.000  Al
  Al1431   1.0000 0.22727  0.95455  0.45454  Biso   1.000  Al
  Al1432   1.0000 0.18181  0.90909  0.54546  Biso   1.000  Al
  Al1433   1.0000 0.18181  0.95455  0.59092  Biso   1.000  Al
  Al1434   1.0000 0.22726  0.90909  0.59092  Biso   1.000  Al
  Al1435   1.0000 0.22727  0.95455  0.54546  Biso   1.000  Al
  Al1436   1.0000 0.18181  0.90910  0.63638  Biso   1.000  Al
  Al1437   1.0000 0.18180  0.95455  0.68184  Biso   1.000  Al
  Al1438   1.0000 0.22726  0.90910  0.68184  Biso   1.000  Al
  Al1439   1.0000 0.22726  0.95455  0.63638  Biso   1.000  Al
  Al1440   1.0000 0.18180  0.90910  0.72730  Biso   1.000  Al
  Al1441   1.0000 0.18178  0.95456  0.77277  Biso   1.000  Al
  Al1442   1.0000 0.22724  0.90910  0.77276  Biso   1.000  Al
  Al1443   1.0000 0.22725  0.95455  0.72730  Biso   1.000  Al
  Al1444   1.0000 0.18178  0.90912  0.81822  Biso   1.000  Al
  Al1445   1.0000 0.18174  0.95457  0.86369  Biso   1.000  Al
  Al1446   1.0000 0.22723  0.90911  0.86367  Biso   1.000  Al
  Al1447   1.0000 0.22723  0.95456  0.81822  Biso   1.000  Al
  Al1448   1.0000 0.18174  0.90913  0.90913  Biso   1.000  Al
  Al1449   1.0000 0.18171  0.95458  0.95458  Biso   1.000  Al
  Al1450   1.0000 0.22721  0.90912  0.95456  Biso   1.000  Al
  Al1451   1.0000 0.22721  0.95456  0.90912  Biso   1.000  Al
  Al1452   1.0000 0.27268  1.00000  0.00000  Biso   1.000  Al
  Al1453   1.0000 0.27268  0.04545  0.04545  Biso   1.000  Al
  Al1454   1.0000 0.31815  0.00000  0.04545  Biso   1.000  Al
  Al1455   1.0000 0.31815  0.04545  0.00000  Biso   1.000  Al
  Al1456   1.0000 0.27269  1.00000  0.09089  Biso   1.000  Al
  Al1457   1.0000 0.27269  0.04545  0.13634  Biso   1.000  Al
  Al1458   1.0000 0.31816  1.00000  0.13635  Biso   1.000  Al
  Al1459   1.0000 0.31815  0.04545  0.09090  Biso   1.000  Al
  Al1460   1.0000 0.27269  0.00000  0.18179  Biso   1.000  Al
  Al1461   1.0000 0.27270  0.04545  0.22725  Biso   1.000  Al
  Al1462   1.0000 0.31816  0.00000  0.22726  Biso   1.000  Al
  Al1463   1.0000 0.31816  0.04545  0.18180  Biso   1.000  Al
  Al1464   1.0000 0.27271  0.00000  0.27271  Biso   1.000  Al
  Al1465   1.0000 0.27271  0.04545  0.31817  Biso   1.000  Al
  Al1466   1.0000 0.31817  1.00000  0.31817  Biso   1.000  Al
  Al1467   1.0000 0.31817  0.04545  0.27271  Biso   1.000  Al
  Al1468   1.0000 0.27272  0.00000  0.36362  Biso   1.000  Al
  Al1469   1.0000 0.27272  0.04545  0.40908  Biso   1.000  Al
  Al1470   1.0000 0.31817  0.00000  0.40908  Biso   1.000  Al
  Al1471   1.0000 0.31817  0.04545  0.36363  Biso   1.000  Al
  Al1472   1.0000 0.27272  0.00000  0.45454  Biso   1.000  Al
  Al1473   1.0000 0.27272  0.04545  0.50000  Biso   1.000  Al
  Al1474   1.0000 0.31818  0.00000  0.50000  Biso   1.000  Al
  Al1475   1.0000 0.31817  0.04545  0.45454  Biso   1.000  Al
  Al1476   1.0000 0.27272  1.00000  0.54546  Biso   1.000  Al
  Al1477   1.0000 0.27272  0.04545  0.59092  Biso   1.000  Al
  Al1478   1.0000 0.31817  1.00000  0.59092  Biso   1.000  Al
  Al1479   1.0000 0.31817  0.04545  0.54546  Biso   1.000  Al
  Al1480   1.0000 0.27272  1.00000  0.63638  Biso   1.000  Al
  Al1481   1.0000 0.27271  0.04545  0.68183  Biso   1.000  Al
  Al1482   1.0000 0.31817  0.00000  0.68183  Biso   1.000  Al
  Al1483   1.0000 0.31817  0.04545  0.63637  Biso   1.000  Al
  Al1484   1.0000 0.27271  1.00000  0.72729  Biso   1.000  Al
  Al1485   1.0000 0.27270  0.04545  0.77275  Biso   1.000  Al
  Al1486   1.0000 0.31816  0.00000  0.77274  Biso   1.000  Al
  Al1487   1.0000 0.31817  0.04545  0.72729  Biso   1.000  Al
  Al1488   1.0000 0.27269  0.00000  0.81821  Biso   1.000  Al
  Al1489   1.0000 0.27269  0.04545  0.86366  Biso   1.000  Al
  Al1490   1.0000 0.31816  1.00000  0.86365  Biso   1.000  Al
  Al1491   1.0000 0.31816  0.04545  0.81820  Biso   1.000  Al
  Al1492   1.0000 0.27269  0.00000  0.90911  Biso   1.000  Al
  Al1493   1.0000 0.27268  0.04545  0.95455  Biso   1.000  Al
  Al1494   1.0000 0.31815  0.00000  0.95455  Biso   1.000  Al
  Al1495   1.0000 0.31815  0.04545  0.90910  Biso   1.000  Al
  Al1496   1.0000 0.27269  0.09089  1.00000  Biso   1.000  Al
  Al1497   1.0000 0.27269  0.13634  0.04545  Biso   1.000  Al
  Al1498   1.0000 0.31815  0.09090  0.04545  Biso   1.000  Al
  Al1499   1.0000 0.31816  0.13635  1.00000  Biso   1.000  Al
  Al1500   1.0000 0.27269  0.09089  0.09089  Biso   1.000  Al
  Al1501   1.0000 0.27270  0.13635  0.13635  Biso   1.000  Al
  Al1502   1.0000 0.31816  0.09090  0.13635  Biso   1.000  Al
  Al1503   1.0000 0.31816  0.13635  0.09090  Biso   1.000  Al
  Al1504   1.0000 0.27270  0.09090  0.18180  Biso   1.000  Al
  Al1505   1.0000 0.27271  0.13635  0.22725  Biso   1.000  Al
  Al1506   1.0000 0.31816  0.09090  0.22726  Biso   1.000  Al
  Al1507   1.0000 0.31816  0.13635  0.18180  Biso   1.000  Al
  Al1508   1.0000 0.27271  0.09090  0.27271  Biso   1.000  Al
  Al1509   1.0000 0.27271  0.13636  0.31817  Biso   1.000  Al
  Al1510   1.0000 0.31817  0.09090  0.31817  Biso   1.000  Al
  Al1511   1.0000 0.31817  0.13636  0.27271  Biso   1.000  Al
  Al1512   1.0000 0.27272  0.09090  0.36363  Biso   1.000  Al
  Al1513   1.0000 0.27272  0.13636  0.40908  Biso   1.000  Al
  Al1514   1.0000 0.31817  0.09091  0.40908  Biso   1.000  Al
  Al1515   1.0000 0.31817  0.13636  0.36363  Biso   1.000  Al
  Al1516   1.0000 0.27272  0.09091  0.45454  Biso   1.000  Al
  Al1517   1.0000 0.27272  0.13636  0.50000  Biso   1.000  Al
  Al1518   1.0000 0.31818  0.09091  0.50000  Biso   1.000  Al
  Al1519   1.0000 0.31818  0.13636  0.45454  Biso   1.000  Al
  Al1520   1.0000 0.27272  0.09091  0.54546  Biso   1.000  Al
  Al1521   1.0000 0.27272  0.13636  0.59092  Biso   1.000  Al
  Al1522   1.0000 0.31817  0.09091  0.59092  Biso   1.000  Al
  Al1523   1.0000 0.31818  0.13636  0.54546  Biso   1.000  Al
  Al1524   1.0000 0.27272  0.09090  0.63637  Biso   1.000  Al
  Al1525   1.0000 0.27271  0.13636  0.68183  Biso   1.000  Al
  Al1526   1.0000 0.31817  0.09090  0.68183  Biso   1.000  Al
  Al1527   1.0000 0.31817  0.13636  0.63637  Biso   1.000  Al
  Al1528   1.0000 0.27271  0.09090  0.72729  Biso   1.000  Al
  Al1529   1.0000 0.27271  0.13635  0.77275  Biso   1.000  Al
  Al1530   1.0000 0.31816  0.09090  0.77274  Biso   1.000  Al
  Al1531   1.0000 0.31817  0.13636  0.72729  Biso   1.000  Al
  Al1532   1.0000 0.27270  0.09090  0.81820  Biso   1.000  Al
  Al1533   1.0000 0.27270  0.13635  0.86365  Biso   1.000  Al
  Al1534   1.0000 0.31816  0.09090  0.86365  Biso   1.000  Al
  Al1535   1.0000 0.31816  0.13635  0.81820  Biso   1.000  Al
  Al1536   1.0000 0.27269  0.09089  0.90911  Biso   1.000  Al
  Al1537   1.0000 0.27269  0.13634  0.95455  Biso   1.000  Al
  Al1538   1.0000 0.31815  0.09090  0.95455  Biso   1.000  Al
  Al1539   1.0000 0.31816  0.13635  0.90910  Biso   1.000  Al
  Al1540   1.0000 0.27269  0.18179  1.00000  Biso   1.000  Al
  Al1541   1.0000 0.27270  0.22725  0.04545  Biso   1.000  Al
  Al1542   1.0000 0.31816  0.18180  0.04545  Biso   1.000  Al
  Al1543   1.0000 0.31816  0.22726  1.00000  Biso   1.000  Al
  Al1544   1.0000 0.27270  0.18180  0.09090  Biso   1.000  Al
  Al1545   1.0000 0.27271  0.22725  0.13635  Biso   1.000  Al
  Al1546   1.0000 0.31816  0.18180  0.13635  Biso   1.000  Al
  Al1547   1.0000 0.31816  0.22726  0.09090  Biso   1.000  Al
  Al1548   1.0000 0.27271  0.18180  0.18180  Biso   1.000  Al
  Al1549   1.0000 0.27271  0.22726  0.22726  Biso   1.000  Al
  Al1550   1.0000 0.31817  0.18181  0.22726  Biso   1.000  Al
  Al1551   1.0000 0.31817  0.22726  0.18181  Biso   1.000  Al
  Al1552   1.0000 0.27271  0.18181  0.27271  Biso   1.000  Al
  Al1553   1.0000 0.27272  0.22726  0.31817  Biso   1.000  Al
  Al1554   1.0000 0.31817  0.18181  0.31817  Biso   1.000  Al
  Al1555   1.0000 0.31817  0.22726  0.27272  Biso   1.000  Al
  Al1556   1.0000 0.27272  0.18181  0.36363  Biso   1.000  Al
  Al1557   1.0000 0.27272  0.22727  0.40909  Biso   1.000  Al
  Al1558   1.0000 0.31817  0.18181  0.40909  Biso   1.000  Al
  Al1559   1.0000 0.31817  0.22727  0.36363  Biso   1.000  Al
  Al1560   1.0000 0.27272  0.18181  0.45454  Biso   1.000  Al
  Al1561   1.0000 0.27272  0.22727  0.50000  Biso   1.000  Al
  Al1562   1.0000 0.31818  0.18181  0.50000  Biso   1.000  Al
  Al1563   1.0000 0.31818  0.22727  0.45454  Biso   1.000  Al
  Al1564   1.0000 0.27272  0.18181  0.54546  Biso   1.000  Al
  Al1565   1.0000 0.27272  0.22727  0.59091  Biso   1.000  Al
  Al1566   1.0000 0.31817  0.18181  0.59091  Biso   1.000  Al
  Al1567   1.0000 0.31818  0.22727  0.54546  Biso   1.000  Al
  Al1568   1.0000 0.27272  0.18181  0.63637  Biso   1.000  Al
  Al1569   1.0000 0.27272  0.22726  0.68183  Biso   1.000  Al
  Al1570   1.0000 0.31817  0.18181  0.68183  Biso   1.000  Al
  Al1571   1.0000 0.31817  0.22727  0.63637  Biso   1.000  Al
  Al1572   1.0000 0.27271  0.18181  0.72729  Biso   1.000  Al
  Al1573   1.0000 0.27271  0.22726  0.77274  Biso   1.000  Al
  Al1574   1.0000 0.31817  0.18181  0.77274  Biso   1.000  Al
  Al1575   1.0000 0.31817  0.22726  0.72728  Biso   1.000  Al
  Al1576   1.0000 0.27271  0.18180  0.81820  Biso   1.000  Al
  Al1577   1.0000 0.27271  0.22725  0.86365  Biso   1.000  Al
  Al1578   1.0000 0.31816  0.18180  0.86365  Biso   1.000  Al
  Al1579   1.0000 0.31817  0.22726  0.81819  Biso   1.000  Al
  Al1580   1.0000 0.27270  0.18180  0.90910  Biso   1.000  Al
  Al1581   1.0000 0.27270  0.22725  0.95455  Biso   1.000  Al
  Al1582   1.0000 0.31816  0.18180  0.95455  Biso   1.000  Al
  Al1583   1.0000 0.31816  0.22726  0.90910  Biso   1.000  Al
  Al1584   1.0000 0.27271  0.27271  1.00000  Biso   1.000  Al
  Al1585   1.0000 0.27271  0.31817  0.04545  Biso   1.000  Al
  Al1586   1.0000 0.31817  0.27271  0.04545  Biso   1.000  Al
  Al1587   1.0000 0.31817  0.31817  1.00000  Biso   1.000  Al
  Al1588   1.0000 0.27271  0.27271  0.09090  Biso   1.000  Al
  Al1589   1.0000 0.27271  0.31817  0.13636  Biso   1.000  Al
  Al1590   1.0000 0.31817  0.27271  0.13636  Biso   1.000  Al
  Al1591   1.0000 0.31817  0.31817  0.09090  Biso   1.000  Al
  Al1592   1.0000 0.27271  0.27271  0.18181  Biso   1.000  Al
  Al1593   1.0000 0.27272  0.31817  0.22726  Biso   1.000  Al
  Al1594   1.0000 0.31817  0.27272  0.22726  Biso   1.000  Al
  Al1595   1.0000 0.31817  0.31817  0.18181  Biso   1.000  Al
  Al1596   1.0000 0.27272  0.27272  0.27272  Biso   1.000  Al
  Al1597   1.0000 0.27272  0.31817  0.31817  Biso   1.000  Al
  Al1598   1.0000 0.31817  0.27272  0.31817  Biso   1.000  Al
  Al1599   1.0000 0.31817  0.31817  0.27272  Biso   1.000  Al
  Al1600   1.0000 0.27272  0.27272  0.36363  Biso   1.000  Al
  Al1601   1.0000 0.27272  0.31818  0.40909  Biso   1.000  Al
  Al1602   1.0000 0.31818  0.27272  0.40909  Biso   1.000  Al
  Al1603   1.0000 0.31818  0.31818  0.36363  Biso   1.000  Al
  Al1604   1.0000 0.27272  0.27272  0.45454  Biso   1.000  Al
  Al1605   1.0000 0.27272  0.31818  0.50000  Biso   1.000  Al
  Al1606   1.0000 0.31818  0.27272  0.50000  Biso   1.000  Al
  Al1607   1.0000 0.31818  0.31818  0.45454  Biso   1.000  Al
  Al1608   1.0000 0.27272  0.27272  0.54546  Biso   1.000  Al
  Al1609   1.0000 0.27272  0.31818  0.59091  Biso   1.000  Al
  Al1610   1.0000 0.31818  0.27272  0.59091  Biso   1.000  Al
  Al1611   1.0000 0.31818  0.31818  0.54546  Biso   1.000  Al
  Al1612   1.0000 0.27272  0.27272  0.63637  Biso   1.000  Al
  Al1613   1.0000 0.27272  0.31817  0.68183  Biso   1.000  Al
  Al1614   1.0000 0.31817  0.27272  0.68183  Biso   1.000  Al
  Al1615   1.0000 0.31818  0.31818  0.63637  Biso   1.000  Al
  Al1616   1.0000 0.27272  0.27272  0.72728  Biso   1.000  Al
  Al1617   1.0000 0.27272  0.31817  0.77274  Biso   1.000  Al
  Al1618   1.0000 0.31817  0.27272  0.77274  Biso   1.000  Al
  Al1619   1.0000 0.31817  0.31817  0.72728  Biso   1.000  Al
  Al1620   1.0000 0.27271  0.27271  0.81819  Biso   1.000  Al
  Al1621   1.0000 0.27271  0.31817  0.86364  Biso   1.000  Al
  Al1622   1.0000 0.31817  0.27271  0.86364  Biso   1.000  Al
  Al1623   1.0000 0.31817  0.31817  0.81819  Biso   1.000  Al
  Al1624   1.0000 0.27271  0.27271  0.90910  Biso   1.000  Al
  Al1625   1.0000 0.27271  0.31817  0.95455  Biso   1.000  Al
  Al1626   1.0000 0.31817  0.27271  0.95455  Biso   1.000  Al
  Al1627   1.0000 0.31817  0.31817  0.90910  Biso   1.000  Al
  Al1628   1.0000 0.27272  0.36362  1.00000  Biso   1.000  Al
  Al1629   1.0000 0.27272  0.40908  0.04545  Biso   1.000  Al
  Al1630   1.0000 0.31817  0.36363  0.04545  Biso   1.000  Al
  Al1631   1.0000 0.31817  0.40908  1.00000  Biso   1.000  Al
  Al1632   1.0000 0.27272  0.36363  0.09090  Biso   1.000  Al
  Al1633   1.0000 0.27272  0.40908  0.13636  Biso   1.000  Al
  Al1634   1.0000 0.31817  0.36363  0.13636  Biso   1.000  Al
  Al1635   1.0000 0.31817  0.40908  0.09091  Biso   1.000  Al
  Al1636   1.0000 0.27272  0.36363  0.18181  Biso   1.000  Al
  Al1637   1.0000 0.27272  0.40909  0.22727  Biso   1.000  Al
  Al1638   1.0000 0.31817  0.36363  0.22727  Biso   1.000  Al
  Al1639   1.0000 0.31817  0.40909  0.18181  Biso   1.000  Al
  Al1640   1.0000 0.27272  0.36363  0.27272  Biso   1.000  Al
  Al1641   1.0000 0.27272  0.40909  0.31818  Biso   1.000  Al
  Al1642   1.0000 0.31818  0.36363  0.31818  Biso   1.000  Al
  Al1643   1.0000 0.31818  0.40909  0.27272  Biso   1.000  Al
  Al1644   1.0000 0.27272  0.36363  0.36363  Biso   1.000  Al
  Al1645   1.0000 0.27272  0.40909  0.40909  Biso   1.000  Al
  Al1646   1.0000 0.31818  0.36363  0.40909  Biso   1.000  Al
  Al1647   1.0000 0.31818  0.40909  0.36363  Biso   1.000  Al
  Al1648   1.0000 0.27272  0.36363  0.45454  Biso   1.000  Al
  Al1649   1.0000 0.27272  0.40909  0.50000  Biso   1.000  Al
  Al1650   1.0000 0.31818  0.36363  0.50000  Biso   1.000  Al
  Al1651   1.0000 0.31818  0.40909  0.45454  Biso   1.000  Al
  Al1652   1.0000 0.27272  0.36363  0.54546  Biso   1.000  Al
  Al1653   1.0000 0.27272  0.40909  0.59091  Biso   1.000  Al
  Al1654   1.0000 0.31818  0.36363  0.59091  Biso   1.000  Al
  Al1655   1.0000 0.31818  0.40909  0.54546  Biso   1.000  Al
  Al1656   1.0000 0.27272  0.36363  0.63637  Biso   1.000  Al
  Al1657   1.0000 0.27272  0.40909  0.68182  Biso   1.000  Al
  Al1658   1.0000 0.31818  0.36363  0.68182  Biso   1.000  Al
  Al1659   1.0000 0.31818  0.40909  0.63637  Biso   1.000  Al
  Al1660   1.0000 0.27272  0.36363  0.72728  Biso   1.000  Al
  Al1661   1.0000 0.27272  0.40909  0.77273  Biso   1.000  Al
  Al1662   1.0000 0.31817  0.36363  0.77273  Biso   1.000  Al
  Al1663   1.0000 0.31818  0.40909  0.72728  Biso   1.000  Al
  Al1664   1.0000 0.27272  0.36363  0.81819  Biso   1.000  Al
  Al1665   1.0000 0.27272  0.40908  0.86364  Biso   1.000  Al
  Al1666   1.0000 0.31817  0.36363  0.86364  Biso   1.000  Al
  Al1667   1.0000 0.31817  0.40909  0.81819  Biso   1.000  Al
  Al1668   1.0000 0.27272  0.36363  0.90910  Biso   1.000  Al
  Al1669   1.0000 0.27272  0.40908  0.95455  Biso   1.000  Al
  Al1670   1.0000 0.31817  0.36363  0.95455  Biso   1.000  Al
  Al1671   1.0000 0.31817  0.40908  0.90909  Biso   1.000  Al
  Al1672   1.0000 0.27272  0.45454  0.00000  Biso   1.000  Al
  Al1673   1.0000 0.27272  0.50000  0.04545  Biso   1.000  Al
  Al1674   1.0000 0.31817  0.45454  0.04545  Biso   1.000  Al
  Al1675   1.0000 0.31818  0.50000  0.00000  Biso   1.000  Al
  Al1676   1.0000 0.27272  0.45454  0.09091  Biso   1.000  Al
  Al1677   1.0000 0.27272  0.50000  0.13636  Biso   1.000  Al
  Al1678   1.0000 0.31818  0.45454  0.13636  Biso   1.000  Al
  Al1679   1.0000 0.31818  0.50000  0.09091  Biso   1.000  Al
  Al1680   1.0000 0.27272  0.45454  0.18181  Biso   1.000  Al
  Al1681   1.0000 0.27272  0.50000  0.22727  Biso   1.000  Al
  Al1682   1.0000 0.31818  0.45454  0.22727  Biso   1.000  Al
  Al1683   1.0000 0.31818  0.50000  0.18181  Biso   1.000  Al
  Al1684   1.0000 0.27272  0.45454  0.27272  Biso   1.000  Al
  Al1685   1.0000 0.27272  0.50000  0.31818  Biso   1.000  Al
  Al1686   1.0000 0.31818  0.45454  0.31818  Biso   1.000  Al
  Al1687   1.0000 0.31818  0.50000  0.27272  Biso   1.000  Al
  Al1688   1.0000 0.27272  0.45454  0.36363  Biso   1.000  Al
  Al1689   1.0000 0.27272  0.50000  0.40909  Biso   1.000  Al
  Al1690   1.0000 0.31818  0.45454  0.40909  Biso   1.000  Al
  Al1691   1.0000 0.31818  0.50000  0.36363  Biso   1.000  Al
  Al1692   1.0000 0.27272  0.45454  0.45454  Biso   1.000  Al
  Al1693   1.0000 0.27272  0.50000  0.50000  Biso   1.000  Al
  Al1694   1.0000 0.31818  0.45454  0.50000  Biso   1.000  Al
  Al1695   1.0000 0.31818  0.50000  0.45454  Biso   1.000  Al
  Al1696   1.0000 0.27272  0.45454  0.54546  Biso   1.000  Al
  Al1697   1.0000 0.27272  0.50000  0.59091  Biso   1.000  Al
  Al1698   1.0000 0.31818  0.45454  0.59091  Biso   1.000  Al
  Al1699   1.0000 0.31818  0.50000  0.54546  Biso   1.000  Al
  Al1700   1.0000 0.27272  0.45454  0.63637  Biso   1.000  Al
  Al1701   1.0000 0.27272  0.50000  0.68182  Biso   1.000  Al
  Al1702   1.0000 0.31818  0.45454  0.68182  Biso   1.000  Al
  Al1703   1.0000 0.31818  0.50000  0.63637  Biso   1.000  Al
  Al1704   1.0000 0.27272  0.45454  0.72728  Biso   1.000  Al
  Al1705   1.0000 0.27272  0.50000  0.77273  Biso   1.000  Al
  Al1706   1.0000 0.31818  0.45454  0.77273  Biso   1.000  Al
  Al1707   1.0000 0.31818  0.50000  0.72728  Biso   1.000  Al
  Al1708   1.0000 0.27272  0.45454  0.81819  Biso   1.000  Al
  Al1709   1.0000 0.27272  0.50000  0.86364  Biso   1.000  Al
  Al1710   1.0000 0.31818  0.45454  0.86364  Biso   1.000  Al
  Al1711   1.0000 0.31818  0.50000  0.81819  Biso   1.000  Al
  Al1712   1.0000 0.27272  0.45454  0.90909  Biso   1.000  Al
  Al1713   1.0000 0.27272  0.50000  0.95455  Biso   1.000  Al
  Al1714   1.0000 0.31817  0.45454  0.95455  Biso   1.000  Al
  Al1715   1.0000 0.31818  0.50000  0.90909  Biso   1.000  Al
  Al1716   1.0000 0.27272  0.54546  1.00000  Biso   1.000  Al
  Al1717   1.0000 0.27272  0.59092  0.04545  Biso   1.000  Al
  Al1718   1.0000 0.31817  0.54546  0.04545  Biso   1.000  Al
  Al1719   1.0000 0.31817  0.59092  1.00000  Biso   1.000  Al
  Al1720   1.0000 0.27272  0.54546  0.09091  Biso   1.000  Al
  Al1721   1.0000 0.27272  0.59092  0.13636  Biso   1.000  Al
  Al1722   1.0000 0.31818  0.54546  0.13636  Biso   1.000  Al
  Al1723   1.0000 0.31817  0.59092  0.09091  Biso   1.000  Al
  Al1724   1.0000 0.27272  0.54546  0.18181  Biso   1.000  Al
  Al1725   1.0000 0.27272  0.59091  0.22727  Biso   1.000  Al
  Al1726   1.0000 0.31818  0.54546  0.22727  Biso   1.000  Al
  Al1727   1.0000 0.31817  0.59091  0.18181  Biso   1.000  Al
  Al1728   1.0000 0.27272  0.54546  0.27272  Biso   1.000  Al
  Al1729   1.0000 0.27272  0.59091  0.31818  Biso   1.000  Al
  Al1730   1.0000 0.31818  0.54546  0.31818  Biso   1.000  Al
  Al1731   1.0000 0.31818  0.59091  0.27272  Biso   1.000  Al
  Al1732   1.0000 0.27272  0.54546  0.36363  Biso   1.000  Al
  Al1733   1.0000 0.27272  0.59091  0.40909  Biso   1.000  Al
  Al1734   1.0000 0.31818  0.54546  0.40909  Biso   1.000  Al
  Al1735   1.0000 0.31818  0.59091  0.36363  Biso   1.000  Al
  Al1736   1.0000 0.27272  0.54546  0.45454  Biso   1.000  Al
  Al1737   1.0000 0.27272  0.59091  0.50000  Biso   1.000  Al
  Al1738   1.0000 0.31818  0.54546  0.50000  Biso   1.000  Al
  Al1739   1.0000 0.31818  0.59091  0.45454  Biso   1.000  Al
  Al1740   1.0000 0.27272  0.54546  0.54546  Biso   1.000  Al
  Al1741   1.0000 0.27272  0.59091  0.59091  Biso   1.000  Al
  Al1742   1.0000 0.31818  0.54546  0.59091  Biso   1.000  Al
  Al1743   1.0000 0.31818  0.59091  0.54546  Biso   1.000  Al
  Al1744   1.0000 0.27272  0.54546  0.63637  Biso   1.000  Al
  Al1745   1.0000 0.27272  0.59091  0.68182  Biso   1.000  Al
  Al1746   1.0000 0.31818  0.54546  0.68182  Biso   1.000  Al
  Al1747   1.0000 0.31818  0.59091  0.63637  Biso   1.000  Al
  Al1748   1.0000 0.27272  0.54546  0.72728  Biso   1.000  Al
  Al1749   1.0000 0.27272  0.59091  0.77273  Biso   1.000  Al
  Al1750   1.0000 0.31818  0.54546  0.77273  Biso   1.000  Al
  Al1751   1.0000 0.31818  0.59091  0.72728  Biso   1.000  Al
  Al1752   1.0000 0.27272  0.54546  0.81819  Biso   1.000  Al
  Al1753   1.0000 0.27272  0.59092  0.86364  Biso   1.000  Al
  Al1754   1.0000 0.31818  0.54546  0.86364  Biso   1.000  Al
  Al1755   1.0000 0.31817  0.59091  0.81819  Biso   1.000  Al
  Al1756   1.0000 0.27272  0.54546  0.90909  Biso   1.000  Al
  Al1757   1.0000 0.27272  0.59092  0.95455  Biso   1.000  Al
  Al1758   1.0000 0.31817  0.54546  0.95455  Biso   1.000  Al
  Al1759   1.0000 0.31817  0.59092  0.90909  Biso   1.000  Al
  Al1760   1.0000 0.27272  0.63638  1.00000  Biso   1.000  Al
  Al1761   1.0000 0.27271  0.68183  0.04545  Biso   1.000  Al
  Al1762   1.0000 0.31817  0.63637  0.04545  Biso   1.000  Al
  Al1763   1.0000 0.31817  0.68183  1.00000  Biso   1.000  Al
  Al1764   1.0000 0.27272  0.63637  0.09090  Biso   1.000  Al
  Al1765   1.0000 0.27271  0.68183  0.13636  Biso   1.000  Al
  Al1766   1.0000 0.31817  0.63637  0.13636  Biso   1.000  Al
  Al1767   1.0000 0.31817  0.68183  0.09090  Biso   1.000  Al
  Al1768   1.0000 0.27272  0.63637  0.18181  Biso   1.000  Al
  Al1769   1.0000 0.27272  0.68183  0.22726  Biso   1.000  Al
  Al1770   1.0000 0.31817  0.63637  0.22727  Biso   1.000  Al
  Al1771   1.0000 0.31817  0.68183  0.18181  Biso   1.000  Al
  Al1772   1.0000 0.27272  0.63637  0.27272  Biso   1.000  Al
  Al1773   1.0000 0.27272  0.68183  0.31817  Biso   1.000  Al
  Al1774   1.0000 0.31818  0.63637  0.31818  Biso   1.000  Al
  Al1775   1.0000 0.31817  0.68183  0.27272  Biso   1.000  Al
  Al1776   1.0000 0.27272  0.63637  0.36363  Biso   1.000  Al
  Al1777   1.0000 0.27272  0.68182  0.40909  Biso   1.000  Al
  Al1778   1.0000 0.31818  0.63637  0.40909  Biso   1.000  Al
  Al1779   1.0000 0.31818  0.68182  0.36363  Biso   1.000  Al
  Al1780   1.0000 0.27272  0.63637  0.45454  Biso   1.000  Al
  Al1781   1.0000 0.27272  0.68182  0.50000  Biso   1.000  Al
  Al1782   1.0000 0.31818  0.63637  0.50000  Biso   1.000  Al
  Al1783   1.0000 0.31818  0.68182  0.45454  Biso   1.000  Al
  Al1784   1.0000 0.27272  0.63637  0.54546  Biso   1.000  Al
  Al1785   1.0000 0.27272  0.68182  0.59091  Biso   1.000  Al
  Al1786   1.0000 0.31818  0.63637  0.59091  Biso   1.000  Al
  Al1787   1.0000 0.31818  0.68182  0.54546  Biso   1.000  Al
  Al1788   1.0000 0.27272  0.63637  0.63637  Biso   1.000  Al
  Al1789   1.0000 0.27272  0.68183  0.68183  Biso   1.000  Al
  Al1790   1.0000 0.31818  0.63637  0.68182  Biso   1.000  Al
  Al1791   1.0000 0.31818  0.68182  0.63637  Biso   1.000  Al
  Al1792   1.0000 0.27272  0.63637  0.72728  Biso   1.000  Al
  Al1793   1.0000 0.27272  0.68183  0.77274  Biso   1.000  Al
  Al1794   1.0000 0.31817  0.63637  0.77273  Biso   1.000  Al
  Al1795   1.0000 0.31817  0.68183  0.72728  Biso   1.000  Al
  Al1796   1.0000 0.27272  0.63637  0.81819  Biso   1.000  Al
  Al1797   1.0000 0.27271  0.68183  0.86364  Biso   1.000  Al
  Al1798   1.0000 0.31817  0.63637  0.86364  Biso   1.000  Al
  Al1799   1.0000 0.31817  0.68183  0.81819  Biso   1.000  Al
  Al1800   1.0000 0.27272  0.63637  0.90910  Biso   1.000  Al
  Al1801   1.0000 0.27271  0.68183  0.95455  Biso   1.000  Al
  Al1802   1.0000 0.31817  0.63637  0.95455  Biso   1.000  Al
  Al1803   1.0000 0.31817  0.68183  0.90910  Biso   1.000  Al
  Al1804   1.0000 0.27271  0.72729  0.00000  Biso   1.000  Al
  Al1805   1.0000 0.27270  0.77275  0.04545  Biso   1.000  Al
  Al1806   1.0000 0.31817  0.72729  0.04545  Biso   1.000  Al
  Al1807   1.0000 0.31816  0.77274  1.00000  Biso   1.000  Al
  Al1808   1.0000 0.27271  0.72729  0.09090  Biso   1.000  Al
  Al1809   1.0000 0.27271  0.77275  0.13635  Biso   1.000  Al
  Al1810   1.0000 0.31817  0.72729  0.13636  Biso   1.000  Al
  Al1811   1.0000 0.31816  0.77274  0.09090  Biso   1.000  Al
  Al1812   1.0000 0.27271  0.72729  0.18181  Biso   1.000  Al
  Al1813   1.0000 0.27271  0.77274  0.22726  Biso   1.000  Al
  Al1814   1.0000 0.31817  0.72728  0.22726  Biso   1.000  Al
  Al1815   1.0000 0.31817  0.77274  0.18181  Biso   1.000  Al
  Al1816   1.0000 0.27272  0.72728  0.27272  Biso   1.000  Al
  Al1817   1.0000 0.27272  0.77274  0.31817  Biso   1.000  Al
  Al1818   1.0000 0.31817  0.72728  0.31817  Biso   1.000  Al
  Al1819   1.0000 0.31817  0.77274  0.27272  Biso   1.000  Al
  Al1820   1.0000 0.27272  0.72728  0.36363  Biso   1.000  Al
  Al1821   1.0000 0.27272  0.77273  0.40909  Biso   1.000  Al
  Al1822   1.0000 0.31818  0.72728  0.40909  Biso   1.000  Al
  Al1823   1.0000 0.31817  0.77273  0.36363  Biso   1.000  Al
  Al1824   1.0000 0.27272  0.72728  0.45454  Biso   1.000  Al
  Al1825   1.0000 0.27272  0.77273  0.50000  Biso   1.000  Al
  Al1826   1.0000 0.31818  0.72728  0.50000  Biso   1.000  Al
  Al1827   1.0000 0.31818  0.77273  0.45454  Biso   1.000  Al
  Al1828   1.0000 0.27272  0.72728  0.54546  Biso   1.000  Al
  Al1829   1.0000 0.27272  0.77273  0.59091  Biso   1.000  Al
  Al1830   1.0000 0.31818  0.72728  0.59091  Biso   1.000  Al
  Al1831   1.0000 0.31818  0.77273  0.54546  Biso   1.000  Al
  Al1832   1.0000 0.27272  0.72728  0.63637  Biso   1.000  Al
  Al1833   1.0000 0.27272  0.77274  0.68183  Biso   1.000  Al
  Al1834   1.0000 0.31817  0.72728  0.68183  Biso   1.000  Al
  Al1835   1.0000 0.31817  0.77273  0.63637  Biso   1.000  Al
  Al1836   1.0000 0.27272  0.72728  0.72728  Biso   1.000  Al
  Al1837   1.0000 0.27271  0.77274  0.77274  Biso   1.000  Al
  Al1838   1.0000 0.31817  0.72728  0.77274  Biso   1.000  Al
  Al1839   1.0000 0.31817  0.77274  0.72728  Biso   1.000  Al
  Al1840   1.0000 0.27271  0.72729  0.81819  Biso   1.000  Al
  Al1841   1.0000 0.27271  0.77275  0.86365  Biso   1.000  Al
  Al1842   1.0000 0.31817  0.72729  0.86364  Biso   1.000  Al
  Al1843   1.0000 0.31817  0.77274  0.81819  Biso   1.000  Al
  Al1844   1.0000 0.27271  0.72729  0.90910  Biso   1.000  Al
  Al1845   1.0000 0.27270  0.77275  0.95455  Biso   1.000  Al
  Al1846   1.0000 0.31817  0.72729  0.95455  Biso   1.000  Al
  Al1847   1.0000 0.31816  0.77274  0.90910  Biso   1.000  Al
  Al1848   1.0000 0.27269  0.81821  0.00000  Biso   1.000  Al
  Al1849   1.0000 0.27269  0.86366  0.04545  Biso   1.000  Al
  Al1850   1.0000 0.31816  0.81820  0.04545  Biso   1.000  Al
  Al1851   1.0000 0.31816  0.86365  1.00000  Biso   1.000  Al
  Al1852   1.0000 0.27270  0.81820  0.09090  Biso   1.000  Al
  Al1853   1.0000 0.27270  0.86365  0.13635  Biso   1.000  Al
  Al1854   1.0000 0.31816  0.81820  0.13635  Biso   1.000  Al
  Al1855   1.0000 0.31816  0.86365  0.09090  Biso   1.000  Al
  Al1856   1.0000 0.27271  0.81820  0.18180  Biso   1.000  Al
  Al1857   1.0000 0.27271  0.86365  0.22725  Biso   1.000  Al
  Al1858   1.0000 0.31817  0.81819  0.22726  Biso   1.000  Al
  Al1859   1.0000 0.31816  0.86365  0.18180  Biso   1.000  Al
  Al1860   1.0000 0.27271  0.81819  0.27271  Biso   1.000  Al
  Al1861   1.0000 0.27271  0.86364  0.31817  Biso   1.000  Al
  Al1862   1.0000 0.31817  0.81819  0.31817  Biso   1.000  Al
  Al1863   1.0000 0.31817  0.86364  0.27271  Biso   1.000  Al
  Al1864   1.0000 0.27272  0.81819  0.36363  Biso   1.000  Al
  Al1865   1.0000 0.27272  0.86364  0.40908  Biso   1.000  Al
  Al1866   1.0000 0.31817  0.81819  0.40909  Biso   1.000  Al
  Al1867   1.0000 0.31817  0.86364  0.36363  Biso   1.000  Al
  Al1868   1.0000 0.27272  0.81819  0.45454  Biso   1.000  Al
  Al1869   1.0000 0.27272  0.86364  0.50000  Biso   1.000  Al
  Al1870   1.0000 0.31818  0.81819  0.50000  Biso   1.000  Al
  Al1871   1.0000 0.31818  0.86364  0.45454  Biso   1.000  Al
  Al1872   1.0000 0.27272  0.81819  0.54546  Biso   1.000  Al
  Al1873   1.0000 0.27272  0.86364  0.59092  Biso   1.000  Al
  Al1874   1.0000 0.31817  0.81819  0.59091  Biso   1.000  Al
  Al1875   1.0000 0.31818  0.86364  0.54546  Biso   1.000  Al
  Al1876   1.0000 0.27272  0.81819  0.63637  Biso   1.000  Al
  Al1877   1.0000 0.27271  0.86364  0.68183  Biso   1.000  Al
  Al1878   1.0000 0.31817  0.81819  0.68183  Biso   1.000  Al
  Al1879   1.0000 0.31817  0.86364  0.63637  Biso   1.000  Al
  Al1880   1.0000 0.27271  0.81819  0.72729  Biso   1.000  Al
  Al1881   1.0000 0.27271  0.86365  0.77275  Biso   1.000  Al
  Al1882   1.0000 0.31817  0.81819  0.77274  Biso   1.000  Al
  Al1883   1.0000 0.31817  0.86364  0.72729  Biso   1.000  Al
  Al1884   1.0000 0.27271  0.81820  0.81820  Biso   1.000  Al
  Al1885   1.0000 0.27270  0.86365  0.86365  Biso   1.000  Al
  Al1886   1.0000 0.31816  0.81820  0.86365  Biso   1.000  Al
  Al1887   1.0000 0.31816  0.86365  0.81820  Biso   1.000  Al
  Al1888   1.0000 0.27270  0.81820  0.90910  Biso   1.000  Al
  Al1889   1.0000 0.27269  0.86366  0.95455  Biso   1.000  Al
  Al1890   1.0000 0.31816  0.81820  0.95455  Biso   1.000  Al
  Al1891   1.0000 0.31816  0.86365  0.90910  Biso   1.000  Al
  Al1892   1.0000 0.27269  0.90911  1.00000  Biso   1.000  Al
  Al1893   1.0000 0.27268  0.95455  0.04545  Biso   1.000  Al
  Al1894   1.0000 0.31815  0.90910  0.04545  Biso   1.000  Al
  Al1895   1.0000 0.31815  0.95455  1.00000  Biso   1.000  Al
  Al1896   1.0000 0.27269  0.90911  0.09089  Biso   1.000  Al
  Al1897   1.0000 0.27269  0.95455  0.13634  Biso   1.000  Al
  Al1898   1.0000 0.31816  0.90910  0.13635  Biso   1.000  Al
  Al1899   1.0000 0.31815  0.95455  0.09090  Biso   1.000  Al
  Al1900   1.0000 0.27270  0.90910  0.18180  Biso   1.000  Al
  Al1901   1.0000 0.27270  0.95455  0.22725  Biso   1.000  Al
  Al1902   1.0000 0.31816  0.90910  0.22726  Biso   1.000  Al
  Al1903   1.0000 0.31816  0.95455  0.18180  Biso   1.000  Al
  Al1904   1.0000 0.27271  0.90910  0.27271  Biso   1.000  Al
  Al1905   1.0000 0.27271  0.95455  0.31817  Biso   1.000  Al
  Al1906   1.0000 0.31817  0.90910  0.31817  Biso   1.000  Al
  Al1907   1.0000 0.31817  0.95455  0.27271  Biso   1.000  Al
  Al1908   1.0000 0.27272  0.90910  0.36363  Biso   1.000  Al
  Al1909   1.0000 0.27272  0.95455  0.40908  Biso   1.000  Al
  Al1910   1.0000 0.31817  0.90909  0.40908  Biso   1.000  Al
  Al1911   1.0000 0.31817  0.95455  0.36363  Biso   1.000  Al
  Al1912   1.0000 0.27272  0.90909  0.45454  Biso   1.000  Al
  Al1913   1.0000 0.27272  0.95455  0.50000  Biso   1.000  Al
  Al1914   1.0000 0.31818  0.90909  0.50000  Biso   1.000  Al
  Al1915   1.0000 0.31817  0.95455  0.45454  Biso   1.000  Al
  Al1916   1.0000 0.27272  0.90909  0.54546  Biso   1.000  Al
  Al1917   1.0000 0.27272  0.95455  0.59092  Biso   1.000  Al
  Al1918   1.0000 0.31817  0.90909  0.59092  Biso   1.000  Al
  Al1919   1.0000 0.31817  0.95455  0.54546  Biso   1.000  Al
  Al1920   1.0000 0.27272  0.90910  0.63637  Biso   1.000  Al
  Al1921   1.0000 0.27271  0.95455  0.68183  Biso   1.000  Al
  Al1922   1.0000 0.31817  0.90910  0.68183  Biso   1.000  Al
  Al1923   1.0000 0.31817  0.95455  0.63637  Biso   1.000  Al
  Al1924   1.0000 0.27271  0.90910  0.72729  Biso   1.000  Al
  Al1925   1.0000 0.27270  0.95455  0.77275  Biso   1.000  Al
  Al1926   1.0000 0.31816  0.90910  0.77274  Biso   1.000  Al
  Al1927   1.0000 0.31817  0.95455  0.72729  Biso   1.000  Al
  Al1928   1.0000 0.27270  0.90910  0.81820  Biso   1.000  Al
  Al1929   1.0000 0.27269  0.95455  0.86366  Biso   1.000  Al
  Al1930   1.0000 0.31816  0.90910  0.86365  Biso   1.000  Al
  Al1931   1.0000 0.31816  0.95455  0.81820  Biso   1.000  Al
  Al1932   1.0000 0.27269  0.90911  0.90911  Biso   1.000  Al
  Al1933   1.0000 0.27268  0.95455  0.95455  Biso   1.000  Al
  Al1934   1.0000 0.31815  0.90910  0.95455  Biso   1.000  Al
  Al1935   1.0000 0.31815  0.95455  0.90910  Biso   1.000  Al
  Al1936   1.0000 0.36362  1.00000  1.00000  Biso   1.000  Al
  Al1937   1.0000 0.36362  0.04545  0.04545  Biso   1.000  Al
  Al1938   1.0000 0.40908  1.00000  0.04545  Biso   1.000  Al
  Al1939   1.0000 0.40908  0.04545  0.00000  Biso   1.000  Al
  Al1940   1.0000 0.36362  0.00000  0.09090  Biso   1.000  Al
  Al1941   1.0000 0.36362  0.04545  0.13635  Biso   1.000  Al
  Al1942   1.0000 0.40908  0.00000  0.13636  Biso   1.000  Al
  Al1943   1.0000 0.40908  0.04545  0.09090  Biso   1.000  Al
  Al1944   1.0000 0.36362  0.00000  0.18181  Biso   1.000  Al
  Al1945   1.0000 0.36362  0.04545  0.22726  Biso   1.000  Al
  Al1946   1.0000 0.40908  0.00000  0.22726  Biso   1.000  Al
  Al1947   1.0000 0.40908  0.04545  0.18181  Biso   1.000  Al
  Al1948   1.0000 0.36362  0.00000  0.27272  Biso   1.000  Al
  Al1949   1.0000 0.36363  0.04545  0.31817  Biso   1.000  Al
  Al1950   1.0000 0.40908  0.00000  0.31817  Biso   1.000  Al
  Al1951   1.0000 0.40908  0.04545  0.27272  Biso   1.000  Al
  Al1952   1.0000 0.36363  1.00000  0.36363  Biso   1.000  Al
  Al1953   1.0000 0.36363  0.04545  0.40909  Biso   1.000  Al
  Al1954   1.0000 0.40909  1.00000  0.40909  Biso   1.000  Al
  Al1955   1.0000 0.40909  0.04545  0.36363  Biso   1.000  Al
  Al1956   1.0000 0.36363  0.00000  0.45454  Biso   1.000  Al
  Al1957   1.0000 0.36363  0.04545  0.50000  Biso   1.000  Al
  Al1958   1.0000 0.40909  0.00000  0.50000  Biso   1.000  Al
  Al1959   1.0000 0.40909  0.04545  0.45454  Biso   1.000  Al
  Al1960   1.0000 0.36363  1.00000  0.54546  Biso   1.000  Al
  Al1961   1.0000 0.36363  0.04545  0.59091  Biso   1.000  Al
  Al1962   1.0000 0.40909  0.00000  0.59091  Biso   1.000  Al
  Al1963   1.0000 0.40909  0.04545  0.54546  Biso   1.000  Al
  Al1964   1.0000 0.36363  0.00000  0.63637  Biso   1.000  Al
  Al1965   1.0000 0.36363  0.04545  0.68183  Biso   1.000  Al
  Al1966   1.0000 0.40908  0.00000  0.68183  Biso   1.000  Al
  Al1967   1.0000 0.40909  0.04545  0.63637  Biso   1.000  Al
  Al1968   1.0000 0.36362  1.00000  0.72728  Biso   1.000  Al
  Al1969   1.0000 0.36362  0.04545  0.77274  Biso   1.000  Al
  Al1970   1.0000 0.40908  1.00000  0.77274  Biso   1.000  Al
  Al1971   1.0000 0.40908  0.04545  0.72728  Biso   1.000  Al
  Al1972   1.0000 0.36362  0.00000  0.81819  Biso   1.000  Al
  Al1973   1.0000 0.36362  0.04545  0.86365  Biso   1.000  Al
  Al1974   1.0000 0.40908  1.00000  0.86364  Biso   1.000  Al
  Al1975   1.0000 0.40908  0.04545  0.81819  Biso   1.000  Al
  Al1976   1.0000 0.36362  1.00000  0.90910  Biso   1.000  Al
  Al1977   1.0000 0.36362  0.04545  0.95455  Biso   1.000  Al
  Al1978   1.0000 0.40908  1.00000  0.95455  Biso   1.000  Al
  Al1979   1.0000 0.40908  0.04545  0.90910  Biso   1.000  Al
  Al1980   1.0000 0.36362  0.09090  1.00000  Biso   1.000  Al
  Al1981   1.0000 0.36362  0.13635  0.04545  Biso   1.000  Al
  Al1982   1.0000 0.40908  0.09090  0.04545  Biso   1.000  Al
  Al1983   1.0000 0.40908  0.13636  0.00000  Biso   1.000  Al
  Al1984   1.0000 0.36362  0.09090  0.09090  Biso   1.000  Al
  Al1985   1.0000 0.36362  0.13635  0.13635  Biso   1.000  Al
  Al1986   1.0000 0.40908  0.09090  0.13636  Biso   1.000  Al
  Al1987   1.0000 0.40908  0.13636  0.09090  Biso   1.000  Al
  Al1988   1.0000 0.36362  0.09090  0.18181  Biso   1.000  Al
  Al1989   1.0000 0.36362  0.13636  0.22726  Biso   1.000  Al
  Al1990   1.0000 0.40908  0.09091  0.22726  Biso   1.000  Al
  Al1991   1.0000 0.40908  0.13636  0.18181  Biso   1.000  Al
  Al1992   1.0000 0.36363  0.09090  0.27272  Biso   1.000  Al
  Al1993   1.0000 0.36363  0.13636  0.31817  Biso   1.000  Al
  Al1994   1.0000 0.40908  0.09091  0.31817  Biso   1.000  Al
  Al1995   1.0000 0.40908  0.13636  0.27272  Biso   1.000  Al
  Al1996   1.0000 0.36363  0.09091  0.36363  Biso   1.000  Al
  Al1997   1.0000 0.36363  0.13636  0.40909  Biso   1.000  Al
  Al1998   1.0000 0.40909  0.09091  0.40909  Biso   1.000  Al
  Al1999   1.0000 0.40909  0.13636  0.36363  Biso   1.000  Al
  Al2000   1.0000 0.36363  0.09091  0.45454  Biso   1.000  Al
  Al2001   1.0000 0.36363  0.13636  0.50000  Biso   1.000  Al
  Al2002   1.0000 0.40909  0.09091  0.50000  Biso   1.000  Al
  Al2003   1.0000 0.40909  0.13636  0.45454  Biso   1.000  Al
  Al2004   1.0000 0.36363  0.09091  0.54546  Biso   1.000  Al
  Al2005   1.0000 0.36363  0.13636  0.59091  Biso   1.000  Al
  Al2006   1.0000 0.40909  0.09091  0.59091  Biso   1.000  Al
  Al2007   1.0000 0.40909  0.13636  0.54546  Biso   1.000  Al
  Al2008   1.0000 0.36363  0.09091  0.63637  Biso   1.000  Al
  Al2009   1.0000 0.36363  0.13636  0.68183  Biso   1.000  Al
  Al2010   1.0000 0.40908  0.09091  0.68183  Biso   1.000  Al
  Al2011   1.0000 0.40909  0.13636  0.63637  Biso   1.000  Al
  Al2012   1.0000 0.36363  0.09090  0.72728  Biso   1.000  Al
  Al2013   1.0000 0.36362  0.13636  0.77274  Biso   1.000  Al
  Al2014   1.0000 0.40908  0.09091  0.77274  Biso   1.000  Al
  Al2015   1.0000 0.40908  0.13636  0.72728  Biso   1.000  Al
  Al2016   1.0000 0.36362  0.09090  0.81819  Biso   1.000  Al
  Al2017   1.0000 0.36362  0.13635  0.86365  Biso   1.000  Al
  Al2018   1.0000 0.40908  0.09090  0.86364  Biso   1.000  Al
  Al2019   1.0000 0.40908  0.13636  0.81819  Biso   1.000  Al
  Al2020   1.0000 0.36362  0.09090  0.90910  Biso   1.000  Al
  Al2021   1.0000 0.36362  0.13635  0.95455  Biso   1.000  Al
  Al2022   1.0000 0.40908  0.09090  0.95455  Biso   1.000  Al
  Al2023   1.0000 0.40908  0.13636  0.90910  Biso   1.000  Al
  Al2024   1.0000 0.36362  0.18181  1.00000  Biso   1.000  Al
  Al2025   1.0000 0.36362  0.22726  0.04545  Biso   1.000  Al
  Al2026   1.0000 0.40908  0.18181  0.04545  Biso   1.000  Al
  Al2027   1.0000 0.40908  0.22726  1.00000  Biso   1.000  Al
  Al2028   1.0000 0.36362  0.18181  0.09090  Biso   1.000  Al
  Al2029   1.0000 0.36362  0.22726  0.13636  Biso   1.000  Al
  Al2030   1.0000 0.40908  0.18181  0.13636  Biso   1.000  Al
  Al2031   1.0000 0.40908  0.22726  0.09091  Biso   1.000  Al
  Al2032   1.0000 0.36362  0.18181  0.18181  Biso   1.000  Al
  Al2033   1.0000 0.36363  0.22726  0.22726  Biso   1.000  Al
  Al2034   1.0000 0.40908  0.18181  0.22727  Biso   1.000  Al
  Al2035   1.0000 0.40908  0.22727  0.18181  Biso   1.000  Al
  Al2036   1.0000 0.36363  0.18181  0.27272  Biso   1.000  Al
  Al2037   1.0000 0.36363  0.22727  0.31817  Biso   1.000  Al
  Al2038   1.0000 0.40909  0.18181  0.31817  Biso   1.000  Al
  Al2039   1.0000 0.40909  0.22727  0.27272  Biso   1.000  Al
  Al2040   1.0000 0.36363  0.18181  0.36363  Biso   1.000  Al
  Al2041   1.0000 0.36363  0.22727  0.40909  Biso   1.000  Al
  Al2042   1.0000 0.40909  0.18181  0.40909  Biso   1.000  Al
  Al2043   1.0000 0.40909  0.22727  0.36363  Biso   1.000  Al
  Al2044   1.0000 0.36363  0.18181  0.45454  Biso   1.000  Al
  Al2045   1.0000 0.36363  0.22727  0.50000  Biso   1.000  Al
  Al2046   1.0000 0.40909  0.18181  0.50000  Biso   1.000  Al
  Al2047   1.0000 0.40909  0.22727  0.45454  Biso   1.000  Al
  Al2048   1.0000 0.36363  0.18181  0.54546  Biso   1.000  Al
  Al2049   1.0000 0.36363  0.22727  0.59091  Biso   1.000  Al
  Al2050   1.0000 0.40909  0.18181  0.59091  Biso   1.000  Al
  Al2051   1.0000 0.40909  0.22727  0.54546  Biso   1.000  Al
  Al2052   1.0000 0.36363  0.18181  0.63637  Biso   1.000  Al
  Al2053   1.0000 0.36363  0.22727  0.68183  Biso   1.000  Al
  Al2054   1.0000 0.40909  0.18181  0.68183  Biso   1.000  Al
  Al2055   1.0000 0.40909  0.22727  0.63637  Biso   1.000  Al
  Al2056   1.0000 0.36363  0.18181  0.72728  Biso   1.000  Al
  Al2057   1.0000 0.36363  0.22726  0.77274  Biso   1.000  Al
  Al2058   1.0000 0.40908  0.18181  0.77273  Biso   1.000  Al
  Al2059   1.0000 0.40909  0.22727  0.72728  Biso   1.000  Al
  Al2060   1.0000 0.36362  0.18181  0.81819  Biso   1.000  Al
  Al2061   1.0000 0.36362  0.22726  0.86364  Biso   1.000  Al
  Al2062   1.0000 0.40908  0.18181  0.86364  Biso   1.000  Al
  Al2063   1.0000 0.40908  0.22727  0.81819  Biso   1.000  Al
  Al2064   1.0000 0.36362  0.18181  0.90910  Biso   1.000  Al
  Al2065   1.0000 0.36362  0.22726  0.95455  Biso   1.000  Al
  Al2066   1.0000 0.40908  0.18181  0.95455  Biso   1.000  Al
  Al2067   1.0000 0.40908  0.22726  0.90909  Biso   1.000  Al
  Al2068   1.0000 0.36362  0.27272  1.00000  Biso   1.000  Al
  Al2069   1.0000 0.36363  0.31817  0.04545  Biso   1.000  Al
  Al2070   1.0000 0.40908  0.27272  0.04545  Biso   1.000  Al
  Al2071   1.0000 0.40908  0.31817  1.00000  Biso   1.000  Al
  Al2072   1.0000 0.36363  0.27272  0.09090  Biso   1.000  Al
  Al2073   1.0000 0.36363  0.31817  0.13636  Biso   1.000  Al
  Al2074   1.0000 0.40908  0.27272  0.13636  Biso   1.000  Al
  Al2075   1.0000 0.40908  0.31817  0.09091  Biso   1.000  Al
  Al2076   1.0000 0.36363  0.27272  0.18181  Biso   1.000  Al
  Al2077   1.0000 0.36363  0.31817  0.22727  Biso   1.000  Al
  Al2078   1.0000 0.40909  0.27272  0.22727  Biso   1.000  Al
  Al2079   1.0000 0.40909  0.31817  0.18181  Biso   1.000  Al
  Al2080   1.0000 0.36363  0.27272  0.27272  Biso   1.000  Al
  Al2081   1.0000 0.36363  0.31818  0.31818  Biso   1.000  Al
  Al2082   1.0000 0.40909  0.27272  0.31818  Biso   1.000  Al
  Al2083   1.0000 0.40909  0.31818  0.27272  Biso   1.000  Al
  Al2084   1.0000 0.36363  0.27272  0.36363  Biso   1.000  Al
  Al2085   1.0000 0.36363  0.31818  0.40909  Biso   1.000  Al
  Al2086   1.0000 0.40909  0.27272  0.40909  Biso   1.000  Al
  Al2087   1.0000 0.40909  0.31818  0.36363  Biso   1.000  Al
  Al2088   1.0000 0.36363  0.27272  0.45454  Biso   1.000  Al
  Al2089   1.0000 0.36363  0.31818  0.50000  Biso   1.000  Al
  Al2090   1.0000 0.40909  0.27272  0.50000  Biso   1.000  Al
  Al2091   1.0000 0.40909  0.31818  0.45454  Biso   1.000  Al
  Al2092   1.0000 0.36363  0.27272  0.54546  Biso   1.000  Al
  Al2093   1.0000 0.36363  0.31818  0.59091  Biso   1.000  Al
  Al2094   1.0000 0.40909  0.27272  0.59091  Biso   1.000  Al
  Al2095   1.0000 0.40909  0.31818  0.54546  Biso   1.000  Al
  Al2096   1.0000 0.36363  0.27272  0.63637  Biso   1.000  Al
  Al2097   1.0000 0.36363  0.31818  0.68182  Biso   1.000  Al
  Al2098   1.0000 0.40909  0.27272  0.68182  Biso   1.000  Al
  Al2099   1.0000 0.40909  0.31818  0.63637  Biso   1.000  Al
  Al2100   1.0000 0.36363  0.27272  0.72728  Biso   1.000  Al
  Al2101   1.0000 0.36363  0.31817  0.77273  Biso   1.000  Al
  Al2102   1.0000 0.40909  0.27272  0.77273  Biso   1.000  Al
  Al2103   1.0000 0.40909  0.31818  0.72728  Biso   1.000  Al
  Al2104   1.0000 0.36363  0.27272  0.81819  Biso   1.000  Al
  Al2105   1.0000 0.36363  0.31817  0.86364  Biso   1.000  Al
  Al2106   1.0000 0.40908  0.27272  0.86364  Biso   1.000  Al
  Al2107   1.0000 0.40909  0.31817  0.81819  Biso   1.000  Al
  Al2108   1.0000 0.36363  0.27272  0.90910  Biso   1.000  Al
  Al2109   1.0000 0.36363  0.31817  0.95455  Biso   1.000  Al
  Al2110   1.0000 0.40908  0.27272  0.95455  Biso   1.000  Al
  Al2111   1.0000 0.40908  0.31817  0.90909  Biso   1.000  Al
  Al2112   1.0000 0.36363  0.36363  0.00000  Biso   1.000  Al
  Al2113   1.0000 0.36363  0.40909  0.04545  Biso   1.000  Al
  Al2114   1.0000 0.40909  0.36363  0.04545  Biso   1.000  Al
  Al2115   1.0000 0.40909  0.40909  0.00000  Biso   1.000  Al
  Al2116   1.0000 0.36363  0.36363  0.09091  Biso   1.000  Al
  Al2117   1.0000 0.36363  0.40909  0.13636  Biso   1.000  Al
  Al2118   1.0000 0.40909  0.36363  0.13636  Biso   1.000  Al
  Al2119   1.0000 0.40909  0.40909  0.09091  Biso   1.000  Al
  Al2120   1.0000 0.36363  0.36363  0.18181  Biso   1.000  Al
  Al2121   1.0000 0.36363  0.40909  0.22727  Biso   1.000  Al
  Al2122   1.0000 0.40909  0.36363  0.22727  Biso   1.000  Al
  Al2123   1.0000 0.40909  0.40909  0.18181  Biso   1.000  Al
  Al2124   1.0000 0.36363  0.36363  0.27272  Biso   1.000  Al
  Al2125   1.0000 0.36363  0.40909  0.31818  Biso   1.000  Al
  Al2126   1.0000 0.40909  0.36363  0.31818  Biso   1.000  Al
  Al2127   1.0000 0.40909  0.40909  0.27272  Biso   1.000  Al
  Al2128   1.0000 0.36363  0.36363  0.36363  Biso   1.000  Al
  Al2129   1.0000 0.36363  0.40909  0.40909  Biso   1.000  Al
  Al2130   1.0000 0.40909  0.36363  0.40909  Biso   1.000  Al
  Al2131   1.0000 0.40909  0.40909  0.36363  Biso   1.000  Al
  Al2132   1.0000 0.36363  0.36363  0.45454  Biso   1.000  Al
  Al2133   1.0000 0.36363  0.40909  0.50000  Biso   1.000  Al
  Al2134   1.0000 0.40909  0.36363  0.50000  Biso   1.000  Al
  Al2135   1.0000 0.40909  0.40909  0.45454  Biso   1.000  Al
  Al2136   1.0000 0.36363  0.36363  0.54546  Biso   1.000  Al
  Al2137   1.0000 0.36363  0.40909  0.59091  Biso   1.000  Al
  Al2138   1.0000 0.40909  0.36363  0.59091  Biso   1.000  Al
  Al2139   1.0000 0.40909  0.40909  0.54546  Biso   1.000  Al
  Al2140   1.0000 0.36363  0.36363  0.63637  Biso   1.000  Al
  Al2141   1.0000 0.36363  0.40909  0.68182  Biso   1.000  Al
  Al2142   1.0000 0.40909  0.36363  0.68182  Biso   1.000  Al
  Al2143   1.0000 0.40909  0.40909  0.63637  Biso   1.000  Al
  Al2144   1.0000 0.36363  0.36363  0.72728  Biso   1.000  Al
  Al2145   1.0000 0.36363  0.40909  0.77273  Biso   1.000  Al
  Al2146   1.0000 0.40909  0.36363  0.77273  Biso   1.000  Al
  Al2147   1.0000 0.40909  0.40909  0.72728  Biso   1.000  Al
  Al2148   1.0000 0.36363  0.36363  0.81819  Biso   1.000  Al
  Al2149   1.0000 0.36363  0.40909  0.86364  Biso   1.000  Al
  Al2150   1.0000 0.40909  0.36363  0.86364  Biso   1.000  Al
  Al2151   1.0000 0.40909  0.40909  0.81819  Biso   1.000  Al
  Al2152   1.0000 0.36363  0.36363  0.90909  Biso   1.000  Al
  Al2153   1.0000 0.36363  0.40909  0.95455  Biso   1.000  Al
  Al2154   1.0000 0.40909  0.36363  0.95455  Biso   1.000  Al
  Al2155   1.0000 0.40909  0.40909  0.90909  Biso   1.000  Al
  Al2156   1.0000 0.36363  0.45454  1.00000  Biso   1.000  Al
  Al2157   1.0000 0.36363  0.50000  0.04545  Biso   1.000  Al
  Al2158   1.0000 0.40909  0.45454  0.04545  Biso   1.000  Al
  Al2159   1.0000 0.40909  0.50000  1.00000  Biso   1.000  Al
  Al2160   1.0000 0.36363  0.45454  0.09091  Biso   1.000  Al
  Al2161   1.0000 0.36363  0.50000  0.13636  Biso   1.000  Al
  Al2162   1.0000 0.40909  0.45454  0.13636  Biso   1.000  Al
  Al2163   1.0000 0.40909  0.50000  0.09091  Biso   1.000  Al
  Al2164   1.0000 0.36363  0.45454  0.18181  Biso   1.000  Al
  Al2165   1.0000 0.36363  0.50000  0.22727  Biso   1.000  Al
  Al2166   1.0000 0.40909  0.45454  0.22727  Biso   1.000  Al
  Al2167   1.0000 0.40909  0.50000  0.18181  Biso   1.000  Al
  Al2168   1.0000 0.36363  0.45454  0.27272  Biso   1.000  Al
  Al2169   1.0000 0.36363  0.50000  0.31818  Biso   1.000  Al
  Al2170   1.0000 0.40909  0.45454  0.31818  Biso   1.000  Al
  Al2171   1.0000 0.40909  0.50000  0.27272  Biso   1.000  Al
  Al2172   1.0000 0.36363  0.45454  0.36363  Biso   1.000  Al
  Al2173   1.0000 0.36363  0.50000  0.40909  Biso   1.000  Al
  Al2174   1.0000 0.40909  0.45454  0.40909  Biso   1.000  Al
  Al2175   1.0000 0.40909  0.50000  0.36363  Biso   1.000  Al
  Al2176   1.0000 0.36363  0.45454  0.45454  Biso   1.000  Al
  Al2177   1.0000 0.36363  0.50000  0.50000  Biso   1.000  Al
  Al2178   1.0000 0.40909  0.45454  0.50000  Biso   1.000  Al
  Al2179   1.0000 0.40909  0.50000  0.45454  Biso   1.000  Al
  Al2180   1.0000 0.36363  0.45454  0.54546  Biso   1.000  Al
  Al2181   1.0000 0.36363  0.50000  0.59091  Biso   1.000  Al
  Al2182   1.0000 0.40909  0.45454  0.59091  Biso   1.000  Al
  Al2183   1.0000 0.40909  0.50000  0.54546  Biso   1.000  Al
  Al2184   1.0000 0.36363  0.45454  0.63637  Biso   1.000  Al
  Al2185   1.0000 0.36363  0.50000  0.68182  Biso   1.000  Al
  Al2186   1.0000 0.40909  0.45454  0.68182  Biso   1.000  Al
  Al2187   1.0000 0.40909  0.50000  0.63637  Biso   1.000  Al
  Al2188   1.0000 0.36363  0.45454  0.72728  Biso   1.000  Al
  Al2189   1.0000 0.36363  0.50000  0.77273  Biso   1.000  Al
  Al2190   1.0000 0.40909  0.45454  0.77273  Biso   1.000  Al
  Al2191   1.0000 0.40909  0.50000  0.72728  Biso   1.000  Al
  Al2192   1.0000 0.36363  0.45454  0.81819  Biso   1.000  Al
  Al2193   1.0000 0.36363  0.50000  0.86364  Biso   1.000  Al
  Al2194   1.0000 0.40909  0.45454  0.86364  Biso   1.000  Al
  Al2195   1.0000 0.40909  0.50000  0.81819  Biso   1.000  Al
  Al2196   1.0000 0.36363  0.45454  0.90909  Biso   1.000  Al
  Al2197   1.0000 0.36363  0.50000  0.95455  Biso   1.000  Al
  Al2198   1.0000 0.40909  0.45454  0.95455  Biso   1.000  Al
  Al2199   1.0000 0.40909  0.50000  0.90909  Biso   1.000  Al
  Al2200   1.0000 0.36363  0.54546  1.00000  Biso   1.000  Al
  Al2201   1.0000 0.36363  0.59091  0.04545  Biso   1.000  Al
  Al2202   1.0000 0.40909  0.54546  0.04545  Biso   1.000  Al
  Al2203   1.0000 0.40909  0.59091  1.00000  Biso   1.000  Al
  Al2204   1.0000 0.36363  0.54546  0.09091  Biso   1.000  Al
  Al2205   1.0000 0.36363  0.59091  0.13636  Biso   1.000  Al
  Al2206   1.0000 0.40909  0.54546  0.13636  Biso   1.000  Al
  Al2207   1.0000 0.40909  0.59091  0.09091  Biso   1.000  Al
  Al2208   1.0000 0.36363  0.54546  0.18181  Biso   1.000  Al
  Al2209   1.0000 0.36363  0.59091  0.22727  Biso   1.000  Al
  Al2210   1.0000 0.40909  0.54546  0.22727  Biso   1.000  Al
  Al2211   1.0000 0.40909  0.59091  0.18181  Biso   1.000  Al
  Al2212   1.0000 0.36363  0.54546  0.27272  Biso   1.000  Al
  Al2213   1.0000 0.36363  0.59091  0.31818  Biso   1.000  Al
  Al2214   1.0000 0.40909  0.54546  0.31818  Biso   1.000  Al
  Al2215   1.0000 0.40909  0.59091  0.27272  Biso   1.000  Al
  Al2216   1.0000 0.36363  0.54546  0.36363  Biso   1.000  Al
  Al2217   1.0000 0.36363  0.59091  0.40909  Biso   1.000  Al
  Al2218   1.0000 0.40909  0.54546  0.40909  Biso   1.000  Al
  Al2219   1.0000 0.40909  0.59091  0.36363  Biso   1.000  Al
  Al2220   1.0000 0.36363  0.54546  0.45454  Biso   1.000  Al
  Al2221   1.0000 0.36363  0.59091  0.50000  Biso   1.000  Al
  Al2222   1.0000 0.40909  0.54546  0.50000  Biso   1.000  Al
  Al2223   1.0000 0.40909  0.59091  0.45454  Biso   1.000  Al
  Al2224   1.0000 0.36363  0.54546  0.54546  Biso   1.000  Al
  Al2225   1.0000 0.36363  0.59091  0.59091  Biso   1.000  Al
  Al2226   1.0000 0.40909  0.54546  0.59091  Biso   1.000  Al
  Al2227   1.0000 0.40909  0.59091  0.54546  Biso   1.000  Al
  Al2228   1.0000 0.36363  0.54546  0.63637  Biso   1.000  Al
  Al2229   1.0000 0.36363  0.59091  0.68182  Biso   1.000  Al
  Al2230   1.0000 0.40909  0.54546  0.68182  Biso   1.000  Al
  Al2231   1.0000 0.40909  0.59091  0.63637  Biso   1.000  Al
  Al2232   1.0000 0.36363  0.54546  0.72728  Biso   1.000  Al
  Al2233   1.0000 0.36363  0.59091  0.77273  Biso   1.000  Al
  Al2234   1.0000 0.40909  0.54546  0.77273  Biso   1.000  Al
  Al2235   1.0000 0.40909  0.59091  0.72728  Biso   1.000  Al
  Al2236   1.0000 0.36363  0.54546  0.81819  Biso   1.000  Al
  Al2237   1.0000 0.36363  0.59091  0.86364  Biso   1.000  Al
  Al2238   1.0000 0.40909  0.54546  0.86364  Biso   1.000  Al
  Al2239   1.0000 0.40909  0.59091  0.81819  Biso   1.000  Al
  Al2240   1.0000 0.36363  0.54546  0.90909  Biso   1.000  Al
  Al2241   1.0000 0.36363  0.59091  0.95455  Biso   1.000  Al
  Al2242   1.0000 0.40909  0.54546  0.95455  Biso   1.000  Al
  Al2243   1.0000 0.40909  0.59091  0.90909  Biso   1.000  Al
  Al2244   1.0000 0.36363  0.63637  1.00000  Biso   1.000  Al
  Al2245   1.0000 0.36363  0.68183  0.04545  Biso   1.000  Al
  Al2246   1.0000 0.40909  0.63637  0.04545  Biso   1.000  Al
  Al2247   1.0000 0.40908  0.68183  1.00000  Biso   1.000  Al
  Al2248   1.0000 0.36363  0.63637  0.09091  Biso   1.000  Al
  Al2249   1.0000 0.36363  0.68183  0.13636  Biso   1.000  Al
  Al2250   1.0000 0.40909  0.63637  0.13636  Biso   1.000  Al
  Al2251   1.0000 0.40908  0.68183  0.09091  Biso   1.000  Al
  Al2252   1.0000 0.36363  0.63637  0.18181  Biso   1.000  Al
  Al2253   1.0000 0.36363  0.68183  0.22727  Biso   1.000  Al
  Al2254   1.0000 0.40909  0.63637  0.22727  Biso   1.000  Al
  Al2255   1.0000 0.40909  0.68183  0.18181  Biso   1.000  Al
  Al2256   1.0000 0.36363  0.63637  0.27272  Biso   1.000  Al
  Al2257   1.0000 0.36363  0.68182  0.31818  Biso   1.000  Al
  Al2258   1.0000 0.40909  0.63637  0.31818  Biso   1.000  Al
  Al2259   1.0000 0.40909  0.68182  0.27272  Biso   1.000  Al
  Al2260   1.0000 0.36363  0.63637  0.36363  Biso   1.000  Al
  Al2261   1.0000 0.36363  0.68182  0.40909  Biso   1.000  Al
  Al2262   1.0000 0.40909  0.63637  0.40909  Biso   1.000  Al
  Al2263   1.0000 0.40909  0.68182  0.36363  Biso   1.000  Al
  Al2264   1.0000 0.36363  0.63637  0.45454  Biso   1.000  Al
  Al2265   1.0000 0.36363  0.68182  0.50000  Biso   1.000  Al
  Al2266   1.0000 0.40909  0.63637  0.50000  Biso   1.000  Al
  Al2267   1.0000 0.40909  0.68182  0.45454  Biso   1.000  Al
  Al2268   1.0000 0.36363  0.63637  0.54546  Biso   1.000  Al
  Al2269   1.0000 0.36363  0.68182  0.59091  Biso   1.000  Al
  Al2270   1.0000 0.40909  0.63637  0.59091  Biso   1.000  Al
  Al2271   1.0000 0.40909  0.68182  0.54546  Biso   1.000  Al
  Al2272   1.0000 0.36363  0.63637  0.63637  Biso   1.000  Al
  Al2273   1.0000 0.36363  0.68182  0.68182  Biso   1.000  Al
  Al2274   1.0000 0.40909  0.63637  0.68182  Biso   1.000  Al
  Al2275   1.0000 0.40909  0.68182  0.63637  Biso   1.000  Al
  Al2276   1.0000 0.36363  0.63637  0.72728  Biso   1.000  Al
  Al2277   1.0000 0.36363  0.68183  0.77273  Biso   1.000  Al
  Al2278   1.0000 0.40909  0.63637  0.77273  Biso   1.000  Al
  Al2279   1.0000 0.40909  0.68182  0.72728  Biso   1.000  Al
  Al2280   1.0000 0.36363  0.63637  0.81819  Biso   1.000  Al
  Al2281   1.0000 0.36363  0.68183  0.86364  Biso   1.000  Al
  Al2282   1.0000 0.40909  0.63637  0.86364  Biso   1.000  Al
  Al2283   1.0000 0.40909  0.68183  0.81819  Biso   1.000  Al
  Al2284   1.0000 0.36363  0.63637  0.90909  Biso   1.000  Al
  Al2285   1.0000 0.36363  0.68183  0.95455  Biso   1.000  Al
  Al2286   1.0000 0.40909  0.63637  0.95455  Biso   1.000  Al
  Al2287   1.0000 0.40908  0.68183  0.90909  Biso   1.000  Al
  Al2288   1.0000 0.36362  0.72728  1.00000  Biso   1.000  Al
  Al2289   1.0000 0.36362  0.77274  0.04545  Biso   1.000  Al
  Al2290   1.0000 0.40908  0.72728  0.04545  Biso   1.000  Al
  Al2291   1.0000 0.40908  0.77274  0.00000  Biso   1.000  Al
  Al2292   1.0000 0.36363  0.72728  0.09090  Biso   1.000  Al
  Al2293   1.0000 0.36362  0.77274  0.13636  Biso   1.000  Al
  Al2294   1.0000 0.40908  0.72728  0.13636  Biso   1.000  Al
  Al2295   1.0000 0.40908  0.77274  0.09091  Biso   1.000  Al
  Al2296   1.0000 0.36363  0.72728  0.18181  Biso   1.000  Al
  Al2297   1.0000 0.36363  0.77274  0.22726  Biso   1.000  Al
  Al2298   1.0000 0.40909  0.72728  0.22727  Biso   1.000  Al
  Al2299   1.0000 0.40908  0.77273  0.18181  Biso   1.000  Al
  Al2300   1.0000 0.36363  0.72728  0.27272  Biso   1.000  Al
  Al2301   1.0000 0.36363  0.77273  0.31817  Biso   1.000  Al
  Al2302   1.0000 0.40909  0.72728  0.31818  Biso   1.000  Al
  Al2303   1.0000 0.40909  0.77273  0.27272  Biso   1.000  Al
  Al2304   1.0000 0.36363  0.72728  0.36363  Biso   1.000  Al
  Al2305   1.0000 0.36363  0.77273  0.40909  Biso   1.000  Al
  Al2306   1.0000 0.40909  0.72728  0.40909  Biso   1.000  Al
  Al2307   1.0000 0.40909  0.77273  0.36363  Biso   1.000  Al
  Al2308   1.0000 0.36363  0.72728  0.45454  Biso   1.000  Al
  Al2309   1.0000 0.36363  0.77273  0.50000  Biso   1.000  Al
  Al2310   1.0000 0.40909  0.72728  0.50000  Biso   1.000  Al
  Al2311   1.0000 0.40909  0.77273  0.45454  Biso   1.000  Al
  Al2312   1.0000 0.36363  0.72728  0.54546  Biso   1.000  Al
  Al2313   1.0000 0.36363  0.77273  0.59091  Biso   1.000  Al
  Al2314   1.0000 0.40909  0.72728  0.59091  Biso   1.000  Al
  Al2315   1.0000 0.40909  0.77273  0.54546  Biso   1.000  Al
  Al2316   1.0000 0.36363  0.72728  0.63637  Biso   1.000  Al
  Al2317   1.0000 0.36363  0.77273  0.68183  Biso   1.000  Al
  Al2318   1.0000 0.40909  0.72728  0.68182  Biso   1.000  Al
  Al2319   1.0000 0.40909  0.77273  0.63637  Biso   1.000  Al
  Al2320   1.0000 0.36363  0.72728  0.72728  Biso   1.000  Al
  Al2321   1.0000 0.36363  0.77274  0.77274  Biso   1.000  Al
  Al2322   1.0000 0.40909  0.72728  0.77273  Biso   1.000  Al
  Al2323   1.0000 0.40909  0.77273  0.72728  Biso   1.000  Al
  Al2324   1.0000 0.36363  0.72728  0.81819  Biso   1.000  Al
  Al2325   1.0000 0.36362  0.77274  0.86364  Biso   1.000  Al
  Al2326   1.0000 0.40908  0.72728  0.86364  Biso   1.000  Al
  Al2327   1.0000 0.40908  0.77273  0.81819  Biso   1.000  Al
  Al2328   1.0000 0.36363  0.72728  0.90910  Biso   1.000  Al
  Al2329   1.0000 0.36362  0.77274  0.95455  Biso   1.000  Al
  Al2330   1.0000 0.40908  0.72728  0.95455  Biso   1.000  Al
  Al2331   1.0000 0.40908  0.77274  0.90909  Biso   1.000  Al
  Al2332   1.0000 0.36362  0.81819  0.00000  Biso   1.000  Al
  Al2333   1.0000 0.36362  0.86365  0.04545  Biso   1.000  Al
  Al2334   1.0000 0.40908  0.81819  0.04545  Biso   1.000  Al
  Al2335   1.0000 0.40908  0.86364  0.00000  Biso   1.000  Al
  Al2336   1.0000 0.36362  0.81819  0.09090  Biso   1.000  Al
  Al2337   1.0000 0.36362  0.86365  0.13635  Biso   1.000  Al
  Al2338   1.0000 0.40908  0.81819  0.13636  Biso   1.000  Al
  Al2339   1.0000 0.40908  0.86364  0.09090  Biso   1.000  Al
  Al2340   1.0000 0.36362  0.81819  0.18181  Biso   1.000  Al
  Al2341   1.0000 0.36362  0.86364  0.22726  Biso   1.000  Al
  Al2342   1.0000 0.40908  0.81819  0.22727  Biso   1.000  Al
  Al2343   1.0000 0.40908  0.86364  0.18181  Biso   1.000  Al
  Al2344   1.0000 0.36363  0.81819  0.27272  Biso   1.000  Al
  Al2345   1.0000 0.36363  0.86364  0.31817  Biso   1.000  Al
  Al2346   1.0000 0.40909  0.81819  0.31817  Biso   1.000  Al
  Al2347   1.0000 0.40908  0.86364  0.27272  Biso   1.000  Al
  Al2348   1.0000 0.36363  0.81819  0.36363  Biso   1.000  Al
  Al2349   1.0000 0.36363  0.86364  0.40909  Biso   1.000  Al
  Al2350   1.0000 0.40909  0.81819  0.40909  Biso   1.000  Al
  Al2351   1.0000 0.40909  0.86364  0.36363  Biso   1.000  Al
  Al2352   1.0000 0.36363  0.81819  0.45454  Biso   1.000  Al
  Al2353   1.0000 0.36363  0.86364  0.50000  Biso   1.000  Al
  Al2354   1.0000 0.40909  0.81819  0.50000  Biso   1.000  Al
  Al2355   1.0000 0.40909  0.86364  0.45454  Biso   1.000  Al
  Al2356   1.0000 0.36363  0.81819  0.54546  Biso   1.000  Al
  Al2357   1.0000 0.36363  0.86364  0.59091  Biso   1.000  Al
  Al2358   1.0000 0.40909  0.81819  0.59091  Biso   1.000  Al
  Al2359   1.0000 0.40909  0.86364  0.54546  Biso   1.000  Al
  Al2360   1.0000 0.36363  0.81819  0.63637  Biso   1.000  Al
  Al2361   1.0000 0.36363  0.86364  0.68183  Biso   1.000  Al
  Al2362   1.0000 0.40909  0.81819  0.68183  Biso   1.000  Al
  Al2363   1.0000 0.40909  0.86364  0.63637  Biso   1.000  Al
  Al2364   1.0000 0.36363  0.81819  0.72728  Biso   1.000  Al
  Al2365   1.0000 0.36362  0.86364  0.77274  Biso   1.000  Al
  Al2366   1.0000 0.40908  0.81819  0.77273  Biso   1.000  Al
  Al2367   1.0000 0.40908  0.86364  0.72728  Biso   1.000  Al
  Al2368   1.0000 0.36362  0.81819  0.81819  Biso   1.000  Al
  Al2369   1.0000 0.36362  0.86365  0.86365  Biso   1.000  Al
  Al2370   1.0000 0.40908  0.81819  0.86364  Biso   1.000  Al
  Al2371   1.0000 0.40908  0.86364  0.81819  Biso   1.000  Al
  Al2372   1.0000 0.36362  0.81819  0.90910  Biso   1.000  Al
  Al2373   1.0000 0.36362  0.86365  0.95455  Biso   1.000  Al
  Al2374   1.0000 0.40908  0.81819  0.95455  Biso   1.000  Al
  Al2375   1.0000 0.40908  0.86364  0.90910  Biso   1.000  Al
  Al2376   1.0000 0.36362  0.90910  1.00000  Biso   1.000  Al
  Al2377   1.0000 0.36362  0.95455  0.04545  Biso   1.000  Al
  Al2378   1.0000 0.40908  0.90910  0.04545  Biso   1.000  Al
  Al2379   1.0000 0.40908  0.95455  1.00000  Biso   1.000  Al
  Al2380   1.0000 0.36362  0.90910  0.09090  Biso   1.000  Al
  Al2381   1.0000 0.36362  0.95455  0.13635  Biso   1.000  Al
  Al2382   1.0000 0.40908  0.90910  0.13636  Biso   1.000  Al
  Al2383   1.0000 0.40908  0.95455  0.09090  Biso   1.000  Al
  Al2384   1.0000 0.36362  0.90910  0.18181  Biso   1.000  Al
  Al2385   1.0000 0.36362  0.95455  0.22726  Biso   1.000  Al
  Al2386   1.0000 0.40908  0.90909  0.22726  Biso   1.000  Al
  Al2387   1.0000 0.40908  0.95455  0.18181  Biso   1.000  Al
  Al2388   1.0000 0.36363  0.90910  0.27272  Biso   1.000  Al
  Al2389   1.0000 0.36363  0.95455  0.31817  Biso   1.000  Al
  Al2390   1.0000 0.40908  0.90909  0.31817  Biso   1.000  Al
  Al2391   1.0000 0.40908  0.95455  0.27272  Biso   1.000  Al
  Al2392   1.0000 0.36363  0.90909  0.36363  Biso   1.000  Al
  Al2393   1.0000 0.36363  0.95455  0.40909  Biso   1.000  Al
  Al2394   1.0000 0.40909  0.90909  0.40909  Biso   1.000  Al
  Al2395   1.0000 0.40909  0.95455  0.36363  Biso   1.000  Al
  Al2396   1.0000 0.36363  0.90909  0.45454  Biso   1.000  Al
  Al2397   1.0000 0.36363  0.95455  0.50000  Biso   1.000  Al
  Al2398   1.0000 0.40909  0.90909  0.50000  Biso   1.000  Al
  Al2399   1.0000 0.40909  0.95455  0.45454  Biso   1.000  Al
  Al2400   1.0000 0.36363  0.90909  0.54546  Biso   1.000  Al
  Al2401   1.0000 0.36363  0.95455  0.59091  Biso   1.000  Al
  Al2402   1.0000 0.40909  0.90909  0.59091  Biso   1.000  Al
  Al2403   1.0000 0.40909  0.95455  0.54546  Biso   1.000  Al
  Al2404   1.0000 0.36363  0.90909  0.63637  Biso   1.000  Al
  Al2405   1.0000 0.36363  0.95455  0.68183  Biso   1.000  Al
  Al2406   1.0000 0.40908  0.90909  0.68183  Biso   1.000  Al
  Al2407   1.0000 0.40909  0.95455  0.63637  Biso   1.000  Al
  Al2408   1.0000 0.36363  0.90910  0.72728  Biso   1.000  Al
  Al2409   1.0000 0.36362  0.95455  0.77274  Biso   1.000  Al
  Al2410   1.0000 0.40908  0.90909  0.77274  Biso   1.000  Al
  Al2411   1.0000 0.40908  0.95455  0.72728  Biso   1.000  Al
  Al2412   1.0000 0.36362  0.90910  0.81819  Biso   1.000  Al
  Al2413   1.0000 0.36362  0.95455  0.86365  Biso   1.000  Al
  Al2414   1.0000 0.40908  0.90910  0.86364  Biso   1.000  Al
  Al2415   1.0000 0.40908  0.95455  0.81819  Biso   1.000  Al
  Al2416   1.0000 0.36362  0.90910  0.90910  Biso   1.000  Al
  Al2417   1.0000 0.36362  0.95455  0.95455  Biso   1.000  Al
  Al2418   1.0000 0.40908  0.90910  0.95455  Biso   1.000  Al
  Al2419   1.0000 0.40908  0.95455  0.90910  Biso   1.000  Al
  Al2420   1.0000 0.45454  0.00000  0.00000  Biso   1.000  Al
  Al2421   1.0000 0.45454  0.04545  0.04545  Biso   1.000  Al
  Al2422   1.0000 0.50000  0.00000  0.04545  Biso   1.000  Al
  Al2423   1.0000 0.50000  0.04545  0.00000  Biso   1.000  Al
  Al2424   1.0000 0.45454  1.00000  0.09091  Biso   1.000  Al
  Al2425   1.0000 0.45454  0.04545  0.13636  Biso   1.000  Al
  Al2426   1.0000 0.50000  1.00000  0.13636  Biso   1.000  Al
  Al2427   1.0000 0.50000  0.04545  0.09091  Biso   1.000  Al
  Al2428   1.0000 0.45454  1.00000  0.18181  Biso   1.000  Al
  Al2429   1.0000 0.45454  0.04545  0.22727  Biso   1.000  Al
  Al2430   1.0000 0.50000  1.00000  0.22727  Biso   1.000  Al
  Al2431   1.0000 0.50000  0.04545  0.18181  Biso   1.000  Al
  Al2432   1.0000 0.45454  0.00000  0.27272  Biso   1.000  Al
  Al2433   1.0000 0.45454  0.04545  0.31817  Biso   1.000  Al
  Al2434   1.0000 0.50000  0.00000  0.31818  Biso   1.000  Al
  Al2435   1.0000 0.50000  0.04545  0.27272  Biso   1.000  Al
  Al2436   1.0000 0.45454  1.00000  0.36363  Biso   1.000  Al
  Al2437   1.0000 0.45454  0.04545  0.40909  Biso   1.000  Al
  Al2438   1.0000 0.50000  0.00000  0.40909  Biso   1.000  Al
  Al2439   1.0000 0.50000  0.04545  0.36363  Biso   1.000  Al
  Al2440   1.0000 0.45454  1.00000  0.45454  Biso   1.000  Al
  Al2441   1.0000 0.45454  0.04545  0.50000  Biso   1.000  Al
  Al2442   1.0000 0.50000  1.00000  0.50000  Biso   1.000  Al
  Al2443   1.0000 0.50000  0.04545  0.45454  Biso   1.000  Al
  Al2444   1.0000 0.45454  0.00000  0.54546  Biso   1.000  Al
  Al2445   1.0000 0.45454  0.04545  0.59091  Biso   1.000  Al
  Al2446   1.0000 0.50000  0.00000  0.59091  Biso   1.000  Al
  Al2447   1.0000 0.50000  0.04545  0.54546  Biso   1.000  Al
  Al2448   1.0000 0.45454  1.00000  0.63637  Biso   1.000  Al
  Al2449   1.0000 0.45454  0.04545  0.68183  Biso   1.000  Al
  Al2450   1.0000 0.50000  0.00000  0.68182  Biso   1.000  Al
  Al2451   1.0000 0.50000  0.04545  0.63637  Biso   1.000  Al
  Al2452   1.0000 0.45454  1.00000  0.72728  Biso   1.000  Al
  Al2453   1.0000 0.45454  0.04545  0.77273  Biso   1.000  Al
  Al2454   1.0000 0.50000  1.00000  0.77273  Biso   1.000  Al
  Al2455   1.0000 0.50000  0.04545  0.72728  Biso   1.000  Al
  Al2456   1.0000 0.45454  1.00000  0.81819  Biso   1.000  Al
  Al2457   1.0000 0.45454  0.04545  0.86364  Biso   1.000  Al
  Al2458   1.0000 0.50000  1.00000  0.86364  Biso   1.000  Al
  Al2459   1.0000 0.50000  0.04545  0.81819  Biso   1.000  Al
  Al2460   1.0000 0.45454  0.00000  0.90909  Biso   1.000  Al
  Al2461   1.0000 0.45454  0.04545  0.95455  Biso   1.000  Al
  Al2462   1.0000 0.50000  0.00000  0.95455  Biso   1.000  Al
  Al2463   1.0000 0.50000  0.04545  0.90909  Biso   1.000  Al
  Al2464   1.0000 0.45454  0.09091  0.00000  Biso   1.000  Al
  Al2465   1.0000 0.45454  0.13636  0.04545  Biso   1.000  Al
  Al2466   1.0000 0.50000  0.09091  0.04545  Biso   1.000  Al
  Al2467   1.0000 0.50000  0.13636  0.00000  Biso   1.000  Al
  Al2468   1.0000 0.45454  0.09091  0.09091  Biso   1.000  Al
  Al2469   1.0000 0.45454  0.13636  0.13636  Biso   1.000  Al
  Al2470   1.0000 0.50000  0.09091  0.13636  Biso   1.000  Al
  Al2471   1.0000 0.50000  0.13636  0.09091  Biso   1.000  Al
  Al2472   1.0000 0.45454  0.09091  0.18181  Biso   1.000  Al
  Al2473   1.0000 0.45454  0.13636  0.22727  Biso   1.000  Al
  Al2474   1.0000 0.50000  0.09091  0.22727  Biso   1.000  Al
  Al2475   1.0000 0.50000  0.13636  0.18181  Biso   1.000  Al
  Al2476   1.0000 0.45454  0.09091  0.27272  Biso   1.000  Al
  Al2477   1.0000 0.45454  0.13636  0.31818  Biso   1.000  Al
  Al2478   1.0000 0.50000  0.09091  0.31818  Biso   1.000  Al
  Al2479   1.0000 0.50000  0.13636  0.27272  Biso   1.000  Al
  Al2480   1.0000 0.45454  0.09091  0.36363  Biso   1.000  Al
  Al2481   1.0000 0.45454  0.13636  0.40909  Biso   1.000  Al
  Al2482   1.0000 0.50000  0.09091  0.40909  Biso   1.000  Al
  Al2483   1.0000 0.50000  0.13636  0.36363  Biso   1.000  Al
  Al2484   1.0000 0.45454  0.09091  0.45454  Biso   1.000  Al
  Al2485   1.0000 0.45454  0.13636  0.50000  Biso   1.000  Al
  Al2486   1.0000 0.50000  0.09091  0.50000  Biso   1.000  Al
  Al2487   1.0000 0.50000  0.13636  0.45454  Biso   1.000  Al
  Al2488   1.0000 0.45454  0.09091  0.54546  Biso   1.000  Al
  Al2489   1.0000 0.45454  0.13636  0.59091  Biso   1.000  Al
  Al2490   1.0000 0.50000  0.09091  0.59091  Biso   1.000  Al
  Al2491   1.0000 0.50000  0.13636  0.54546  Biso   1.000  Al
  Al2492   1.0000 0.45454  0.09091  0.63637  Biso   1.000  Al
  Al2493   1.0000 0.45454  0.13636  0.68182  Biso   1.000  Al
  Al2494   1.0000 0.50000  0.09091  0.68182  Biso   1.000  Al
  Al2495   1.0000 0.50000  0.13636  0.63637  Biso   1.000  Al
  Al2496   1.0000 0.45454  0.09091  0.72728  Biso   1.000  Al
  Al2497   1.0000 0.45454  0.13636  0.77273  Biso   1.000  Al
  Al2498   1.0000 0.50000  0.09091  0.77273  Biso   1.000  Al
  Al2499   1.0000 0.50000  0.13636  0.72728  Biso   1.000  Al
  Al2500   1.0000 0.45454  0.09091  0.81819  Biso   1.000  Al
  Al2501   1.0000 0.45454  0.13636  0.86364  Biso   1.000  Al
  Al2502   1.0000 0.50000  0.09091  0.86364  Biso   1.000  Al
  Al2503   1.0000 0.50000  0.13636  0.81819  Biso   1.000  Al
  Al2504   1.0000 0.45454  0.09091  0.90909  Biso   1.000  Al
  Al2505   1.0000 0.45454  0.13636  0.95455  Biso   1.000  Al
  Al2506   1.0000 0.50000  0.09091  0.95455  Biso   1.000  Al
  Al2507   1.0000 0.50000  0.13636  0.90909  Biso   1.000  Al
  Al2508   1.0000 0.45454  0.18181  0.00000  Biso   1.000  Al
  Al2509   1.0000 0.45454  0.22727  0.04545  Biso   1.000  Al
  Al2510   1.0000 0.50000  0.18181  0.04545  Biso   1.000  Al
  Al2511   1.0000 0.50000  0.22727  1.00000  Biso   1.000  Al
  Al2512   1.0000 0.45454  0.18181  0.09091  Biso   1.000  Al
  Al2513   1.0000 0.45454  0.22727  0.13636  Biso   1.000  Al
  Al2514   1.0000 0.50000  0.18181  0.13636  Biso   1.000  Al
  Al2515   1.0000 0.50000  0.22727  0.09091  Biso   1.000  Al
  Al2516   1.0000 0.45454  0.18181  0.18181  Biso   1.000  Al
  Al2517   1.0000 0.45454  0.22727  0.22727  Biso   1.000  Al
  Al2518   1.0000 0.50000  0.18181  0.22727  Biso   1.000  Al
  Al2519   1.0000 0.50000  0.22727  0.18181  Biso   1.000  Al
  Al2520   1.0000 0.45454  0.18181  0.27272  Biso   1.000  Al
  Al2521   1.0000 0.45454  0.22727  0.31818  Biso   1.000  Al
  Al2522   1.0000 0.50000  0.18181  0.31818  Biso   1.000  Al
  Al2523   1.0000 0.50000  0.22727  0.27272  Biso   1.000  Al
  Al2524   1.0000 0.45454  0.18181  0.36363  Biso   1.000  Al
  Al2525   1.0000 0.45454  0.22727  0.40909  Biso   1.000  Al
  Al2526   1.0000 0.50000  0.18181  0.40909  Biso   1.000  Al
  Al2527   1.0000 0.50000  0.22727  0.36363  Biso   1.000  Al
  Al2528   1.0000 0.45454  0.18181  0.45454  Biso   1.000  Al
  Al2529   1.0000 0.45454  0.22727  0.50000  Biso   1.000  Al
  Al2530   1.0000 0.50000  0.18181  0.50000  Biso   1.000  Al
  Al2531   1.0000 0.50000  0.22727  0.45454  Biso   1.000  Al
  Al2532   1.0000 0.45454  0.18181  0.54546  Biso   1.000  Al
  Al2533   1.0000 0.45454  0.22727  0.59091  Biso   1.000  Al
  Al2534   1.0000 0.50000  0.18181  0.59091  Biso   1.000  Al
  Al2535   1.0000 0.50000  0.22727  0.54546  Biso   1.000  Al
  Al2536   1.0000 0.45454  0.18181  0.63637  Biso   1.000  Al
  Al2537   1.0000 0.45454  0.22727  0.68182  Biso   1.000  Al
  Al2538   1.0000 0.50000  0.18181  0.68182  Biso   1.000  Al
  Al2539   1.0000 0.50000  0.22727  0.63637  Biso   1.000  Al
  Al2540   1.0000 0.45454  0.18181  0.72728  Biso   1.000  Al
  Al2541   1.0000 0.45454  0.22727  0.77273  Biso   1.000  Al
  Al2542   1.0000 0.50000  0.18181  0.77273  Biso   1.000  Al
  Al2543   1.0000 0.50000  0.22727  0.72728  Biso   1.000  Al
  Al2544   1.0000 0.45454  0.18181  0.81819  Biso   1.000  Al
  Al2545   1.0000 0.45454  0.22727  0.86364  Biso   1.000  Al
  Al2546   1.0000 0.50000  0.18181  0.86364  Biso   1.000  Al
  Al2547   1.0000 0.50000  0.22727  0.81819  Biso   1.000  Al
  Al2548   1.0000 0.45454  0.18181  0.90909  Biso   1.000  Al
  Al2549   1.0000 0.45454  0.22727  0.95455  Biso   1.000  Al
  Al2550   1.0000 0.50000  0.18181  0.95455  Biso   1.000  Al
  Al2551   1.0000 0.50000  0.22727  0.90909  Biso   1.000  Al
  Al2552   1.0000 0.45454  0.27272  0.00000  Biso   1.000  Al
  Al2553   1.0000 0.45454  0.31817  0.04545  Biso   1.000  Al
  Al2554   1.0000 0.50000  0.27272  0.04545  Biso   1.000  Al
  Al2555   1.0000 0.50000  0.31818  0.00000  Biso   1.000  Al
  Al2556   1.0000 0.45454  0.27272  0.09091  Biso   1.000  Al
  Al2557   1.0000 0.45454  0.31818  0.13636  Biso   1.000  Al
  Al2558   1.0000 0.50000  0.27272  0.13636  Biso   1.000  Al
  Al2559   1.0000 0.50000  0.31818  0.09091  Biso   1.000  Al
  Al2560   1.0000 0.45454  0.27272  0.18181  Biso   1.000  Al
  Al2561   1.0000 0.45454  0.31818  0.22727  Biso   1.000  Al
  Al2562   1.0000 0.50000  0.27272  0.22727  Biso   1.000  Al
  Al2563   1.0000 0.50000  0.31818  0.18181  Biso   1.000  Al
  Al2564   1.0000 0.45454  0.27272  0.27272  Biso   1.000  Al
  Al2565   1.0000 0.45454  0.31818  0.31818  Biso   1.000  Al
  Al2566   1.0000 0.50000  0.27272  0.31818  Biso   1.000  Al
  Al2567   1.0000 0.50000  0.31818  0.27272  Biso   1.000  Al
  Al2568   1.0000 0.45454  0.27272  0.36363  Biso   1.000  Al
  Al2569   1.0000 0.45454  0.31818  0.40909  Biso   1.000  Al
  Al2570   1.0000 0.50000  0.27272  0.40909  Biso   1.000  Al
  Al2571   1.0000 0.50000  0.31818  0.36363  Biso   1.000  Al
  Al2572   1.0000 0.45454  0.27272  0.45454  Biso   1.000  Al
  Al2573   1.0000 0.45454  0.31818  0.50000  Biso   1.000  Al
  Al2574   1.0000 0.50000  0.27272  0.50000  Biso   1.000  Al
  Al2575   1.0000 0.50000  0.31818  0.45454  Biso   1.000  Al
  Al2576   1.0000 0.45454  0.27272  0.54546  Biso   1.000  Al
  Al2577   1.0000 0.45454  0.31818  0.59091  Biso   1.000  Al
  Al2578   1.0000 0.50000  0.27272  0.59091  Biso   1.000  Al
  Al2579   1.0000 0.50000  0.31818  0.54546  Biso   1.000  Al
  Al2580   1.0000 0.45454  0.27272  0.63637  Biso   1.000  Al
  Al2581   1.0000 0.45454  0.31818  0.68182  Biso   1.000  Al
  Al2582   1.0000 0.50000  0.27272  0.68182  Biso   1.000  Al
  Al2583   1.0000 0.50000  0.31818  0.63637  Biso   1.000  Al
  Al2584   1.0000 0.45454  0.27272  0.72728  Biso   1.000  Al
  Al2585   1.0000 0.45454  0.31818  0.77273  Biso   1.000  Al
  Al2586   1.0000 0.50000  0.27272  0.77273  Biso   1.000  Al
  Al2587   1.0000 0.50000  0.31818  0.72728  Biso   1.000  Al
  Al2588   1.0000 0.45454  0.27272  0.81819  Biso   1.000  Al
  Al2589   1.0000 0.45454  0.31818  0.86364  Biso   1.000  Al
  Al2590   1.0000 0.50000  0.27272  0.86364  Biso   1.000  Al
  Al2591   1.0000 0.50000  0.31818  0.81819  Biso   1.000  Al
  Al2592   1.0000 0.45454  0.27272  0.90909  Biso   1.000  Al
  Al2593   1.0000 0.45454  0.31817  0.95455  Biso   1.000  Al
  Al2594   1.0000 0.50000  0.27272  0.95455  Biso   1.000  Al
  Al2595   1.0000 0.50000  0.31818  0.90909  Biso   1.000  Al
  Al2596   1.0000 0.45454  0.36363  0.00000  Biso   1.000  Al
  Al2597   1.0000 0.45454  0.40909  0.04545  Biso   1.000  Al
  Al2598   1.0000 0.50000  0.36363  0.04545  Biso   1.000  Al
  Al2599   1.0000 0.50000  0.40909  1.00000  Biso   1.000  Al
  Al2600   1.0000 0.45454  0.36363  0.09091  Biso   1.000  Al
  Al2601   1.0000 0.45454  0.40909  0.13636  Biso   1.000  Al
  Al2602   1.0000 0.50000  0.36363  0.13636  Biso   1.000  Al
  Al2603   1.0000 0.50000  0.40909  0.09091  Biso   1.000  Al
  Al2604   1.0000 0.45454  0.36363  0.18181  Biso   1.000  Al
  Al2605   1.0000 0.45454  0.40909  0.22727  Biso   1.000  Al
  Al2606   1.0000 0.50000  0.36363  0.22727  Biso   1.000  Al
  Al2607   1.0000 0.50000  0.40909  0.18181  Biso   1.000  Al
  Al2608   1.0000 0.45454  0.36363  0.27272  Biso   1.000  Al
  Al2609   1.0000 0.45454  0.40909  0.31818  Biso   1.000  Al
  Al2610   1.0000 0.50000  0.36363  0.31818  Biso   1.000  Al
  Al2611   1.0000 0.50000  0.40909  0.27272  Biso   1.000  Al
  Al2612   1.0000 0.45454  0.36363  0.36363  Biso   1.000  Al
  Al2613   1.0000 0.45454  0.40909  0.40909  Biso   1.000  Al
  Al2614   1.0000 0.50000  0.36363  0.40909  Biso   1.000  Al
  Al2615   1.0000 0.50000  0.40909  0.36363  Biso   1.000  Al
  Al2616   1.0000 0.45454  0.36363  0.45454  Biso   1.000  Al
  Al2617   1.0000 0.45454  0.40909  0.50000  Biso   1.000  Al
  Al2618   1.0000 0.50000  0.36363  0.50000  Biso   1.000  Al
  Al2619   1.0000 0.50000  0.40909  0.45454  Biso   1.000  Al
  Al2620   1.0000 0.45454  0.36363  0.54546  Biso   1.000  Al
  Al2621   1.0000 0.45454  0.40909  0.59091  Biso   1.000  Al
  Al2622   1.0000 0.50000  0.36363  0.59091  Biso   1.000  Al
  Al2623   1.0000 0.50000  0.40909  0.54546  Biso   1.000  Al
  Al2624   1.0000 0.45454  0.36363  0.63637  Biso   1.000  Al
  Al2625   1.0000 0.45454  0.40909  0.68182  Biso   1.000  Al
  Al2626   1.0000 0.50000  0.36363  0.68182  Biso   1.000  Al
  Al2627   1.0000 0.50000  0.40909  0.63637  Biso   1.000  Al
  Al2628   1.0000 0.45454  0.36363  0.72728  Biso   1.000  Al
  Al2629   1.0000 0.45454  0.40909  0.77273  Biso   1.000  Al
  Al2630   1.0000 0.50000  0.36363  0.77273  Biso   1.000  Al
  Al2631   1.0000 0.50000  0.40909  0.72728  Biso   1.000  Al
  Al2632   1.0000 0.45454  0.36363  0.81819  Biso   1.000  Al
  Al2633   1.0000 0.45454  0.40909  0.86364  Biso   1.000  Al
  Al2634   1.0000 0.50000  0.36363  0.86364  Biso   1.000  Al
  Al2635   1.0000 0.50000  0.40909  0.81819  Biso   1.000  Al
  Al2636   1.0000 0.45454  0.36363  0.90909  Biso   1.000  Al
  Al2637   1.0000 0.45454  0.40909  0.95455  Biso   1.000  Al
  Al2638   1.0000 0.50000  0.36363  0.95455  Biso   1.000  Al
  Al2639   1.0000 0.50000  0.40909  0.90909  Biso   1.000  Al
  Al2640   1.0000 0.45454  0.45454  0.00000  Biso   1.000  Al
  Al2641   1.0000 0.45454  0.50000  0.04545  Biso   1.000  Al
  Al2642   1.0000 0.50000  0.45454  0.04545  Biso   1.000  Al
  Al2643   1.0000 0.50000  0.50000  1.00000  Biso   1.000  Al
  Al2644   1.0000 0.45454  0.45454  0.09091  Biso   1.000  Al
  Al2645   1.0000 0.45454  0.50000  0.13636  Biso   1.000  Al
  Al2646   1.0000 0.50000  0.45454  0.13636  Biso   1.000  Al
  Al2647   1.0000 0.50000  0.50000  0.09091  Biso   1.000  Al
  Al2648   1.0000 0.45454  0.45454  0.18181  Biso   1.000  Al
  Al2649   1.0000 0.45454  0.50000  0.22727  Biso   1.000  Al
  Al2650   1.0000 0.50000  0.45454  0.22727  Biso   1.000  Al
  Al2651   1.0000 0.50000  0.50000  0.18181  Biso   1.000  Al
  Al2652   1.0000 0.45454  0.45454  0.27272  Biso   1.000  Al
  Al2653   1.0000 0.45454  0.50000  0.31818  Biso   1.000  Al
  Al2654   1.0000 0.50000  0.45454  0.31818  Biso   1.000  Al
  Al2655   1.0000 0.50000  0.50000  0.27272  Biso   1.000  Al
  Al2656   1.0000 0.45454  0.45454  0.36363  Biso   1.000  Al
  Al2657   1.0000 0.45454  0.50000  0.40909  Biso   1.000  Al
  Al2658   1.0000 0.50000  0.45454  0.40909  Biso   1.000  Al
  Al2659   1.0000 0.50000  0.50000  0.36363  Biso   1.000  Al
  Al2660   1.0000 0.45454  0.45454  0.45454  Biso   1.000  Al
  Al2661   1.0000 0.45454  0.50000  0.50000  Biso   1.000  Al
  Al2662   1.0000 0.50000  0.45454  0.50000  Biso   1.000  Al
  Al2663   1.0000 0.50000  0.50000  0.45454  Biso   1.000  Al
  Al2664   1.0000 0.45454  0.45454  0.54546  Biso   1.000  Al
  Al2665   1.0000 0.45454  0.50000  0.59091  Biso   1.000  Al
  Al2666   1.0000 0.50000  0.45454  0.59091  Biso   1.000  Al
  Al2667   1.0000 0.50000  0.50000  0.54546  Biso   1.000  Al
  Al2668   1.0000 0.45454  0.45454  0.63637  Biso   1.000  Al
  Al2669   1.0000 0.45454  0.50000  0.68182  Biso   1.000  Al
  Al2670   1.0000 0.50000  0.45454  0.68182  Biso   1.000  Al
  Al2671   1.0000 0.50000  0.50000  0.63637  Biso   1.000  Al
  Al2672   1.0000 0.45454  0.45454  0.72728  Biso   1.000  Al
  Al2673   1.0000 0.45454  0.50000  0.77273  Biso   1.000  Al
  Al2674   1.0000 0.50000  0.45454  0.77273  Biso   1.000  Al
  Al2675   1.0000 0.50000  0.50000  0.72728  Biso   1.000  Al
  Al2676   1.0000 0.45454  0.45454  0.81819  Biso   1.000  Al
  Al2677   1.0000 0.45454  0.50000  0.86364  Biso   1.000  Al
  Al2678   1.0000 0.50000  0.45454  0.86364  Biso   1.000  Al
  Al2679   1.0000 0.50000  0.50000  0.81819  Biso   1.000  Al
  Al2680   1.0000 0.45454  0.45454  0.90909  Biso   1.000  Al
  Al2681   1.0000 0.45454  0.50000  0.95455  Biso   1.000  Al
  Al2682   1.0000 0.50000  0.45454  0.95455  Biso   1.000  Al
  Al2683   1.0000 0.50000  0.50000  0.90909  Biso   1.000  Al
  Al2684   1.0000 0.45454  0.54546  1.00000  Biso   1.000  Al
  Al2685   1.0000 0.45454  0.59091  0.04545  Biso   1.000  Al
  Al2686   1.0000 0.50000  0.54546  0.04545  Biso   1.000  Al
  Al2687   1.0000 0.50000  0.59091  1.00000  Biso   1.000  Al
  Al2688   1.0000 0.45454  0.54546  0.09091  Biso   1.000  Al
  Al2689   1.0000 0.45454  0.59091  0.13636  Biso   1.000  Al
  Al2690   1.0000 0.50000  0.54546  0.13636  Biso   1.000  Al
  Al2691   1.0000 0.50000  0.59091  0.09091  Biso   1.000  Al
  Al2692   1.0000 0.45454  0.54546  0.18181  Biso   1.000  Al
  Al2693   1.0000 0.45454  0.59091  0.22727  Biso   1.000  Al
  Al2694   1.0000 0.50000  0.54546  0.22727  Biso   1.000  Al
  Al2695   1.0000 0.50000  0.59091  0.18181  Biso   1.000  Al
  Al2696   1.0000 0.45454  0.54546  0.27272  Biso   1.000  Al
  Al2697   1.0000 0.45454  0.59091  0.31818  Biso   1.000  Al
  Al2698   1.0000 0.50000  0.54546  0.31818  Biso   1.000  Al
  Al2699   1.0000 0.50000  0.59091  0.27272  Biso   1.000  Al
  Al2700   1.0000 0.45454  0.54546  0.36363  Biso   1.000  Al
  Al2701   1.0000 0.45454  0.59091  0.40909  Biso   1.000  Al
  Al2702   1.0000 0.50000  0.54546  0.40909  Biso   1.000  Al
  Al2703   1.0000 0.50000  0.59091  0.36363  Biso   1.000  Al
  Al2704   1.0000 0.45454  0.54546  0.45454  Biso   1.000  Al
  Al2705   1.0000 0.45454  0.59091  0.50000  Biso   1.000  Al
  Al2706   1.0000 0.50000  0.54546  0.50000  Biso   1.000  Al
  Al2707   1.0000 0.50000  0.59091  0.45454  Biso   1.000  Al
  Al2708   1.0000 0.45454  0.54546  0.54546  Biso   1.000  Al
  Al2709   1.0000 0.45454  0.59091  0.59091  Biso   1.000  Al
  Al2710   1.0000 0.50000  0.54546  0.59091  Biso   1.000  Al
  Al2711   1.0000 0.50000  0.59091  0.54546  Biso   1.000  Al
  Al2712   1.0000 0.45454  0.54546  0.63637  Biso   1.000  Al
  Al2713   1.0000 0.45454  0.59091  0.68182  Biso   1.000  Al
  Al2714   1.0000 0.50000  0.54546  0.68182  Biso   1.000  Al
  Al2715   1.0000 0.50000  0.59091  0.63637  Biso   1.000  Al
  Al2716   1.0000 0.45454  0.54546  0.72728  Biso   1.000  Al
  Al2717   1.0000 0.45454  0.59091  0.77273  Biso   1.000  Al
  Al2718   1.0000 0.50000  0.54546  0.77273  Biso   1.000  Al
  Al2719   1.0000 0.50000  0.59091  0.72728  Biso   1.000  Al
  Al2720   1.0000 0.45454  0.54546  0.81819  Biso   1.000  Al
  Al2721   1.0000 0.45454  0.59091  0.86364  Biso   1.000  Al
  Al2722   1.0000 0.50000  0.54546  0.86364  Biso   1.000  Al
  Al2723   1.0000 0.50000  0.59091  0.81819  Biso   1.000  Al
  Al2724   1.0000 0.45454  0.54546  0.90909  Biso   1.000  Al
  Al2725   1.0000 0.45454  0.59091  0.95455  Biso   1.000  Al
  Al2726   1.0000 0.50000  0.54546  0.95455  Biso   1.000  Al
  Al2727   1.0000 0.50000  0.59091  0.90909  Biso   1.000  Al
  Al2728   1.0000 0.45454  0.63637  0.00000  Biso   1.000  Al
  Al2729   1.0000 0.45454  0.68183  0.04545  Biso   1.000  Al
  Al2730   1.0000 0.50000  0.63637  0.04545  Biso   1.000  Al
  Al2731   1.0000 0.50000  0.68182  0.00000  Biso   1.000  Al
  Al2732   1.0000 0.45454  0.63637  0.09091  Biso   1.000  Al
  Al2733   1.0000 0.45454  0.68182  0.13636  Biso   1.000  Al
  Al2734   1.0000 0.50000  0.63637  0.13636  Biso   1.000  Al
  Al2735   1.0000 0.50000  0.68182  0.09091  Biso   1.000  Al
  Al2736   1.0000 0.45454  0.63637  0.18181  Biso   1.000  Al
  Al2737   1.0000 0.45454  0.68182  0.22727  Biso   1.000  Al
  Al2738   1.0000 0.50000  0.63637  0.22727  Biso   1.000  Al
  Al2739   1.0000 0.50000  0.68182  0.18181  Biso   1.000  Al
  Al2740   1.0000 0.45454  0.63637  0.27272  Biso   1.000  Al
  Al2741   1.0000 0.45454  0.68182  0.31818  Biso   1.000  Al
  Al2742   1.0000 0.50000  0.63637  0.31818  Biso   1.000  Al
  Al2743   1.0000 0.50000  0.68182  0.27272  Biso   1.000  Al
  Al2744   1.0000 0.45454  0.63637  0.36363  Biso   1.000  Al
  Al2745   1.0000 0.45454  0.68182  0.40909  Biso   1.000  Al
  Al2746   1.0000 0.50000  0.63637  0.40909  Biso   1.000  Al
  Al2747   1.0000 0.50000  0.68182  0.36363  Biso   1.000  Al
  Al2748   1.0000 0.45454  0.63637  0.45454  Biso   1.000  Al
  Al2749   1.0000 0.45454  0.68182  0.50000  Biso   1.000  Al
  Al2750   1.0000 0.50000  0.63637  0.50000  Biso   1.000  Al
  Al2751   1.0000 0.50000  0.68182  0.45454  Biso   1.000  Al
  Al2752   1.0000 0.45454  0.63637  0.54546  Biso   1.000  Al
  Al2753   1.0000 0.45454  0.68182  0.59091  Biso   1.000  Al
  Al2754   1.0000 0.50000  0.63637  0.59091  Biso   1.000  Al
  Al2755   1.0000 0.50000  0.68182  0.54546  Biso   1.000  Al
  Al2756   1.0000 0.45454  0.63637  0.63637  Biso   1.000  Al
  Al2757   1.0000 0.45454  0.68182  0.68182  Biso   1.000  Al
  Al2758   1.0000 0.50000  0.63637  0.68182  Biso   1.000  Al
  Al2759   1.0000 0.50000  0.68182  0.63637  Biso   1.000  Al
  Al2760   1.0000 0.45454  0.63637  0.72728  Biso   1.000  Al
  Al2761   1.0000 0.45454  0.68182  0.77273  Biso   1.000  Al
  Al2762   1.0000 0.50000  0.63637  0.77273  Biso   1.000  Al
  Al2763   1.0000 0.50000  0.68182  0.72728  Biso   1.000  Al
  Al2764   1.0000 0.45454  0.63637  0.81819  Biso   1.000  Al
  Al2765   1.0000 0.45454  0.68182  0.86364  Biso   1.000  Al
  Al2766   1.0000 0.50000  0.63637  0.86364  Biso   1.000  Al
  Al2767   1.0000 0.50000  0.68182  0.81819  Biso   1.000  Al
  Al2768   1.0000 0.45454  0.63637  0.90909  Biso   1.000  Al
  Al2769   1.0000 0.45454  0.68183  0.95455  Biso   1.000  Al
  Al2770   1.0000 0.50000  0.63637  0.95455  Biso   1.000  Al
  Al2771   1.0000 0.50000  0.68182  0.90909  Biso   1.000  Al
  Al2772   1.0000 0.45454  0.72728  0.00000  Biso   1.000  Al
  Al2773   1.0000 0.45454  0.77273  0.04545  Biso   1.000  Al
  Al2774   1.0000 0.50000  0.72728  0.04545  Biso   1.000  Al
  Al2775   1.0000 0.50000  0.77273  0.00000  Biso   1.000  Al
  Al2776   1.0000 0.45454  0.72728  0.09091  Biso   1.000  Al
  Al2777   1.0000 0.45454  0.77273  0.13636  Biso   1.000  Al
  Al2778   1.0000 0.50000  0.72728  0.13636  Biso   1.000  Al
  Al2779   1.0000 0.50000  0.77273  0.09091  Biso   1.000  Al
  Al2780   1.0000 0.45454  0.72728  0.18181  Biso   1.000  Al
  Al2781   1.0000 0.45454  0.77273  0.22727  Biso   1.000  Al
  Al2782   1.0000 0.50000  0.72728  0.22727  Biso   1.000  Al
  Al2783   1.0000 0.50000  0.77273  0.18181  Biso   1.000  Al
  Al2784   1.0000 0.45454  0.72728  0.27272  Biso   1.000  Al
  Al2785   1.0000 0.45454  0.77273  0.31818  Biso   1.000  Al
  Al2786   1.0000 0.50000  0.72728  0.31818  Biso   1.000  Al
  Al2787   1.0000 0.50000  0.77273  0.27272  Biso   1.000  Al
  Al2788   1.0000 0.45454  0.72728  0.36363  Biso   1.000  Al
  Al2789   1.0000 0.45454  0.77273  0.40909  Biso   1.000  Al
  Al2790   1.0000 0.50000  0.72728  0.40909  Biso   1.000  Al
  Al2791   1.0000 0.50000  0.77273  0.36363  Biso   1.000  Al
  Al2792   1.0000 0.45454  0.72728  0.45454  Biso   1.000  Al
  Al2793   1.0000 0.45454  0.77273  0.50000  Biso   1.000  Al
  Al2794   1.0000 0.50000  0.72728  0.50000  Biso   1.000  Al
  Al2795   1.0000 0.50000  0.77273  0.45454  Biso   1.000  Al
  Al2796   1.0000 0.45454  0.72728  0.54546  Biso   1.000  Al
  Al2797   1.0000 0.45454  0.77273  0.59091  Biso   1.000  Al
  Al2798   1.0000 0.50000  0.72728  0.59091  Biso   1.000  Al
  Al2799   1.0000 0.50000  0.77273  0.54546  Biso   1.000  Al
  Al2800   1.0000 0.45454  0.72728  0.63637  Biso   1.000  Al
  Al2801   1.0000 0.45454  0.77273  0.68182  Biso   1.000  Al
  Al2802   1.0000 0.50000  0.72728  0.68182  Biso   1.000  Al
  Al2803   1.0000 0.50000  0.77273  0.63637  Biso   1.000  Al
  Al2804   1.0000 0.45454  0.72728  0.72728  Biso   1.000  Al
  Al2805   1.0000 0.45454  0.77273  0.77273  Biso   1.000  Al
  Al2806   1.0000 0.50000  0.72728  0.77273  Biso   1.000  Al
  Al2807   1.0000 0.50000  0.77273  0.72728  Biso   1.000  Al
  Al2808   1.0000 0.45454  0.72728  0.81819  Biso   1.000  Al
  Al2809   1.0000 0.45454  0.77273  0.86364  Biso   1.000  Al
  Al2810   1.0000 0.50000  0.72728  0.86364  Biso   1.000  Al
  Al2811   1.0000 0.50000  0.77273  0.81819  Biso   1.000  Al
  Al2812   1.0000 0.45454  0.72728  0.90909  Biso   1.000  Al
  Al2813   1.0000 0.45454  0.77273  0.95455  Biso   1.000  Al
  Al2814   1.0000 0.50000  0.72728  0.95455  Biso   1.000  Al
  Al2815   1.0000 0.50000  0.77273  0.90909  Biso   1.000  Al
  Al2816   1.0000 0.45454  0.81819  0.00000  Biso   1.000  Al
  Al2817   1.0000 0.45454  0.86364  0.04545  Biso   1.000  Al
  Al2818   1.0000 0.50000  0.81819  0.04545  Biso   1.000  Al
  Al2819   1.0000 0.50000  0.86364  1.00000  Biso   1.000  Al
  Al2820   1.0000 0.45454  0.81819  0.09091  Biso   1.000  Al
  Al2821   1.0000 0.45454  0.86364  0.13636  Biso   1.000  Al
  Al2822   1.0000 0.50000  0.81819  0.13636  Biso   1.000  Al
  Al2823   1.0000 0.50000  0.86364  0.09091  Biso   1.000  Al
  Al2824   1.0000 0.45454  0.81819  0.18181  Biso   1.000  Al
  Al2825   1.0000 0.45454  0.86364  0.22727  Biso   1.000  Al
  Al2826   1.0000 0.50000  0.81819  0.22727  Biso   1.000  Al
  Al2827   1.0000 0.50000  0.86364  0.18181  Biso   1.000  Al
  Al2828   1.0000 0.45454  0.81819  0.27272  Biso   1.000  Al
  Al2829   1.0000 0.45454  0.86364  0.31818  Biso   1.000  Al
  Al2830   1.0000 0.50000  0.81819  0.31818  Biso   1.000  Al
  Al2831   1.0000 0.50000  0.86364  0.27272  Biso   1.000  Al
  Al2832   1.0000 0.45454  0.81819  0.36363  Biso   1.000  Al
  Al2833   1.0000 0.45454  0.86364  0.40909  Biso   1.000  Al
  Al2834   1.0000 0.50000  0.81819  0.40909  Biso   1.000  Al
  Al2835   1.0000 0.50000  0.86364  0.36363  Biso   1.000  Al
  Al2836   1.0000 0.45454  0.81819  0.45454  Biso   1.000  Al
  Al2837   1.0000 0.45454  0.86364  0.50000  Biso   1.000  Al
  Al2838   1.0000 0.50000  0.81819  0.50000  Biso   1.000  Al
  Al2839   1.0000 0.50000  0.86364  0.45454  Biso   1.000  Al
  Al2840   1.0000 0.45454  0.81819  0.54546  Biso   1.000  Al
  Al2841   1.0000 0.45454  0.86364  0.59091  Biso   1.000  Al
  Al2842   1.0000 0.50000  0.81819  0.59091  Biso   1.000  Al
  Al2843   1.0000 0.50000  0.86364  0.54546  Biso   1.000  Al
  Al2844   1.0000 0.45454  0.81819  0.63637  Biso   1.000  Al
  Al2845   1.0000 0.45454  0.86364  0.68182  Biso   1.000  Al
  Al2846   1.0000 0.50000  0.81819  0.68182  Biso   1.000  Al
  Al2847   1.0000 0.50000  0.86364  0.63637  Biso   1.000  Al
  Al2848   1.0000 0.45454  0.81819  0.72728  Biso   1.000  Al
  Al2849   1.0000 0.45454  0.86364  0.77273  Biso   1.000  Al
  Al2850   1.0000 0.50000  0.81819  0.77273  Biso   1.000  Al
  Al2851   1.0000 0.50000  0.86364  0.72728  Biso   1.000  Al
  Al2852   1.0000 0.45454  0.81819  0.81819  Biso   1.000  Al
  Al2853   1.0000 0.45454  0.86364  0.86364  Biso   1.000  Al
  Al2854   1.0000 0.50000  0.81819  0.86364  Biso   1.000  Al
  Al2855   1.0000 0.50000  0.86364  0.81819  Biso   1.000  Al
  Al2856   1.0000 0.45454  0.81819  0.90909  Biso   1.000  Al
  Al2857   1.0000 0.45454  0.86364  0.95455  Biso   1.000  Al
  Al2858   1.0000 0.50000  0.81819  0.95455  Biso   1.000  Al
  Al2859   1.0000 0.50000  0.86364  0.90909  Biso   1.000  Al
  Al2860   1.0000 0.45454  0.90909  0.00000  Biso   1.000  Al
  Al2861   1.0000 0.45454  0.95455  0.04545  Biso   1.000  Al
  Al2862   1.0000 0.50000  0.90909  0.04545  Biso   1.000  Al
  Al2863   1.0000 0.50000  0.95455  0.00000  Biso   1.000  Al
  Al2864   1.0000 0.45454  0.90909  0.09091  Biso   1.000  Al
  Al2865   1.0000 0.45454  0.95455  0.13636  Biso   1.000  Al
  Al2866   1.0000 0.50000  0.90909  0.13636  Biso   1.000  Al
  Al2867   1.0000 0.50000  0.95455  0.09091  Biso   1.000  Al
  Al2868   1.0000 0.45454  0.90909  0.18181  Biso   1.000  Al
  Al2869   1.0000 0.45454  0.95455  0.22727  Biso   1.000  Al
  Al2870   1.0000 0.50000  0.90909  0.22727  Biso   1.000  Al
  Al2871   1.0000 0.50000  0.95455  0.18181  Biso   1.000  Al
  Al2872   1.0000 0.45454  0.90909  0.27272  Biso   1.000  Al
  Al2873   1.0000 0.45454  0.95455  0.31817  Biso   1.000  Al
  Al2874   1.0000 0.50000  0.90909  0.31818  Biso   1.000  Al
  Al2875   1.0000 0.50000  0.95455  0.27272  Biso   1.000  Al
  Al2876   1.0000 0.45454  0.90909  0.36363  Biso   1.000  Al
  Al2877   1.0000 0.45454  0.95455  0.40909  Biso   1.000  Al
  Al2878   1.0000 0.50000  0.90909  0.40909  Biso   1.000  Al
  Al2879   1.0000 0.50000  0.95455  0.36363  Biso   1.000  Al
  Al2880   1.0000 0.45454  0.90909  0.45454  Biso   1.000  Al
  Al2881   1.0000 0.45454  0.95455  0.50000  Biso   1.000  Al
  Al2882   1.0000 0.50000  0.90909  0.50000  Biso   1.000  Al
  Al2883   1.0000 0.50000  0.95455  0.45454  Biso   1.000  Al
  Al2884   1.0000 0.45454  0.90909  0.54546  Biso   1.000  Al
  Al2885   1.0000 0.45454  0.95455  0.59091  Biso   1.000  Al
  Al2886   1.0000 0.50000  0.90909  0.59091  Biso   1.000  Al
  Al2887   1.0000 0.50000  0.95455  0.54546  Biso   1.000  Al
  Al2888   1.0000 0.45454  0.90909  0.63637  Biso   1.000  Al
  Al2889   1.0000 0.45454  0.95455  0.68183  Biso   1.000  Al
  Al2890   1.0000 0.50000  0.90909  0.68182  Biso   1.000  Al
  Al2891   1.0000 0.50000  0.95455  0.63637  Biso   1.000  Al
  Al2892   1.0000 0.45454  0.90909  0.72728  Biso   1.000  Al
  Al2893   1.0000 0.45454  0.95455  0.77273  Biso   1.000  Al
  Al2894   1.0000 0.50000  0.90909  0.77273  Biso   1.000  Al
  Al2895   1.0000 0.50000  0.95455  0.72728  Biso   1.000  Al
  Al2896   1.0000 0.45454  0.90909  0.81819  Biso   1.000  Al
  Al2897   1.0000 0.45454  0.95455  0.86364  Biso   1.000  Al
  Al2898   1.0000 0.50000  0.90909  0.86364  Biso   1.000  Al
  Al2899   1.0000 0.50000  0.95455  0.81819  Biso   1.000  Al
  Al2900   1.0000 0.45454  0.90909  0.90909  Biso   1.000  Al
  Al2901   1.0000 0.45454  0.95455  0.95455  Biso   1.000  Al
  Al2902   1.0000 0.50000  0.90909  0.95455  Biso   1.000  Al
  Al2903   1.0000 0.50000  0.95455  0.90909  Biso   1.000  Al
  Al2904   1.0000 0.54546  0.00000  1.00000  Biso   1.000  Al
  Al2905   1.0000 0.54546  0.04545  0.04545  Biso   1.000  Al
  Al2906   1.0000 0.59092  1.00000  0.04545  Biso   1.000  Al
  Al2907   1.0000 0.59092  0.04545  0.00000  Biso   1.000  Al
  Al2908   1.0000 0.54546  1.00000  0.09091  Biso   1.000  Al
  Al2909   1.0000 0.54546  0.04545  0.13636  Biso   1.000  Al
  Al2910   1.0000 0.59092  1.00000  0.13636  Biso   1.000  Al
  Al2911   1.0000 0.59092  0.04545  0.09090  Biso   1.000  Al
  Al2912   1.0000 0.54546  1.00000  0.18181  Biso   1.000  Al
  Al2913   1.0000 0.54546  0.04545  0.22727  Biso   1.000  Al
  Al2914   1.0000 0.59092  0.00000  0.22726  Biso   1.000  Al
  Al2915   1.0000 0.59092  0.04545  0.18181  Biso   1.000  Al
  Al2916   1.0000 0.54546  1.00000  0.27272  Biso   1.000  Al
  Al2917   1.0000 0.54546  0.04545  0.31817  Biso   1.000  Al
  Al2918   1.0000 0.59092  0.00000  0.31817  Biso   1.000  Al
  Al2919   1.0000 0.59092  0.04545  0.27272  Biso   1.000  Al
  Al2920   1.0000 0.54546  0.00000  0.36363  Biso   1.000  Al
  Al2921   1.0000 0.54546  0.04545  0.40909  Biso   1.000  Al
  Al2922   1.0000 0.59091  1.00000  0.40909  Biso   1.000  Al
  Al2923   1.0000 0.59091  0.04545  0.36363  Biso   1.000  Al
  Al2924   1.0000 0.54546  1.00000  0.45454  Biso   1.000  Al
  Al2925   1.0000 0.54546  0.04545  0.50000  Biso   1.000  Al
  Al2926   1.0000 0.59091  0.00000  0.50000  Biso   1.000  Al
  Al2927   1.0000 0.59091  0.04545  0.45454  Biso   1.000  Al
  Al2928   1.0000 0.54546  1.00000  0.54546  Biso   1.000  Al
  Al2929   1.0000 0.54546  0.04545  0.59091  Biso   1.000  Al
  Al2930   1.0000 0.59091  1.00000  0.59091  Biso   1.000  Al
  Al2931   1.0000 0.59091  0.04545  0.54546  Biso   1.000  Al
  Al2932   1.0000 0.54546  1.00000  0.63637  Biso   1.000  Al
  Al2933   1.0000 0.54546  0.04545  0.68183  Biso   1.000  Al
  Al2934   1.0000 0.59092  0.00000  0.68183  Biso   1.000  Al
  Al2935   1.0000 0.59091  0.04545  0.63637  Biso   1.000  Al
  Al2936   1.0000 0.54546  1.00000  0.72728  Biso   1.000  Al
  Al2937   1.0000 0.54546  0.04545  0.77273  Biso   1.000  Al
  Al2938   1.0000 0.59092  0.00000  0.77274  Biso   1.000  Al
  Al2939   1.0000 0.59092  0.04545  0.72728  Biso   1.000  Al
  Al2940   1.0000 0.54546  1.00000  0.81819  Biso   1.000  Al
  Al2941   1.0000 0.54546  0.04545  0.86364  Biso   1.000  Al
  Al2942   1.0000 0.59092  0.00000  0.86364  Biso   1.000  Al
  Al2943   1.0000 0.59092  0.04545  0.81819  Biso   1.000  Al
  Al2944   1.0000 0.54546  1.00000  0.90909  Biso   1.000  Al
  Al2945   1.0000 0.54546  0.04545  0.95455  Biso   1.000  Al
  Al2946   1.0000 0.59092  0.00000  0.95455  Biso   1.000  Al
  Al2947   1.0000 0.59092  0.04545  0.90910  Biso   1.000  Al
  Al2948   1.0000 0.54546  0.09091  1.00000  Biso   1.000  Al
  Al2949   1.0000 0.54546  0.13636  0.04545  Biso   1.000  Al
  Al2950   1.0000 0.59092  0.09090  0.04545  Biso   1.000  Al
  Al2951   1.0000 0.59092  0.13636  0.00000  Biso   1.000  Al
  Al2952   1.0000 0.54546  0.09091  0.09091  Biso   1.000  Al
  Al2953   1.0000 0.54546  0.13636  0.13636  Biso   1.000  Al
  Al2954   1.0000 0.59092  0.09090  0.13636  Biso   1.000  Al
  Al2955   1.0000 0.59092  0.13636  0.09090  Biso   1.000  Al
  Al2956   1.0000 0.54546  0.09091  0.18181  Biso   1.000  Al
  Al2957   1.0000 0.54546  0.13636  0.22727  Biso   1.000  Al
  Al2958   1.0000 0.59092  0.09091  0.22726  Biso   1.000  Al
  Al2959   1.0000 0.59092  0.13636  0.18181  Biso   1.000  Al
  Al2960   1.0000 0.54546  0.09091  0.27272  Biso   1.000  Al
  Al2961   1.0000 0.54546  0.13636  0.31818  Biso   1.000  Al
  Al2962   1.0000 0.59092  0.09091  0.31817  Biso   1.000  Al
  Al2963   1.0000 0.59092  0.13636  0.27272  Biso   1.000  Al
  Al2964   1.0000 0.54546  0.09091  0.36363  Biso   1.000  Al
  Al2965   1.0000 0.54546  0.13636  0.40909  Biso   1.000  Al
  Al2966   1.0000 0.59091  0.09091  0.40909  Biso   1.000  Al
  Al2967   1.0000 0.59091  0.13636  0.36363  Biso   1.000  Al
  Al2968   1.0000 0.54546  0.09091  0.45454  Biso   1.000  Al
  Al2969   1.0000 0.54546  0.13636  0.50000  Biso   1.000  Al
  Al2970   1.0000 0.59091  0.09091  0.50000  Biso   1.000  Al
  Al2971   1.0000 0.59091  0.13636  0.45454  Biso   1.000  Al
  Al2972   1.0000 0.54546  0.09091  0.54546  Biso   1.000  Al
  Al2973   1.0000 0.54546  0.13636  0.59091  Biso   1.000  Al
  Al2974   1.0000 0.59091  0.09091  0.59091  Biso   1.000  Al
  Al2975   1.0000 0.59091  0.13636  0.54546  Biso   1.000  Al
  Al2976   1.0000 0.54546  0.09091  0.63637  Biso   1.000  Al
  Al2977   1.0000 0.54546  0.13636  0.68182  Biso   1.000  Al
  Al2978   1.0000 0.59092  0.09091  0.68183  Biso   1.000  Al
  Al2979   1.0000 0.59091  0.13636  0.63637  Biso   1.000  Al
  Al2980   1.0000 0.54546  0.09091  0.72728  Biso   1.000  Al
  Al2981   1.0000 0.54546  0.13636  0.77273  Biso   1.000  Al
  Al2982   1.0000 0.59092  0.09091  0.77274  Biso   1.000  Al
  Al2983   1.0000 0.59092  0.13636  0.72728  Biso   1.000  Al
  Al2984   1.0000 0.54546  0.09091  0.81819  Biso   1.000  Al
  Al2985   1.0000 0.54546  0.13636  0.86364  Biso   1.000  Al
  Al2986   1.0000 0.59092  0.09090  0.86364  Biso   1.000  Al
  Al2987   1.0000 0.59092  0.13636  0.81819  Biso   1.000  Al
  Al2988   1.0000 0.54546  0.09091  0.90909  Biso   1.000  Al
  Al2989   1.0000 0.54546  0.13636  0.95455  Biso   1.000  Al
  Al2990   1.0000 0.59092  0.09090  0.95455  Biso   1.000  Al
  Al2991   1.0000 0.59092  0.13636  0.90910  Biso   1.000  Al
  Al2992   1.0000 0.54546  0.18181  1.00000  Biso   1.000  Al
  Al2993   1.0000 0.54546  0.22727  0.04545  Biso   1.000  Al
  Al2994   1.0000 0.59092  0.18181  0.04545  Biso   1.000  Al
  Al2995   1.0000 0.59092  0.22726  1.00000  Biso   1.000  Al
  Al2996   1.0000 0.54546  0.18181  0.09091  Biso   1.000  Al
  Al2997   1.0000 0.54546  0.22727  0.13636  Biso   1.000  Al
  Al2998   1.0000 0.59092  0.18181  0.13636  Biso   1.000  Al
  Al2999   1.0000 0.59092  0.22726  0.09091  Biso   1.000  Al
  Al3000   1.0000 0.54546  0.18181  0.18181  Biso   1.000  Al
  Al3001   1.0000 0.54546  0.22727  0.22727  Biso   1.000  Al
  Al3002   1.0000 0.59092  0.18181  0.22727  Biso   1.000  Al
  Al3003   1.0000 0.59092  0.22727  0.18181  Biso   1.000  Al
  Al3004   1.0000 0.54546  0.18181  0.27272  Biso   1.000  Al
  Al3005   1.0000 0.54546  0.22727  0.31818  Biso   1.000  Al
  Al3006   1.0000 0.59091  0.18181  0.31817  Biso   1.000  Al
  Al3007   1.0000 0.59091  0.22727  0.27272  Biso   1.000  Al
  Al3008   1.0000 0.54546  0.18181  0.36363  Biso   1.000  Al
  Al3009   1.0000 0.54546  0.22727  0.40909  Biso   1.000  Al
  Al3010   1.0000 0.59091  0.18181  0.40909  Biso   1.000  Al
  Al3011   1.0000 0.59091  0.22727  0.36363  Biso   1.000  Al
  Al3012   1.0000 0.54546  0.18181  0.45454  Biso   1.000  Al
  Al3013   1.0000 0.54546  0.22727  0.50000  Biso   1.000  Al
  Al3014   1.0000 0.59091  0.18181  0.50000  Biso   1.000  Al
  Al3015   1.0000 0.59091  0.22727  0.45454  Biso   1.000  Al
  Al3016   1.0000 0.54546  0.18181  0.54546  Biso   1.000  Al
  Al3017   1.0000 0.54546  0.22727  0.59091  Biso   1.000  Al
  Al3018   1.0000 0.59091  0.18181  0.59091  Biso   1.000  Al
  Al3019   1.0000 0.59091  0.22727  0.54546  Biso   1.000  Al
  Al3020   1.0000 0.54546  0.18181  0.63637  Biso   1.000  Al
  Al3021   1.0000 0.54546  0.22727  0.68182  Biso   1.000  Al
  Al3022   1.0000 0.59091  0.18181  0.68183  Biso   1.000  Al
  Al3023   1.0000 0.59091  0.22727  0.63637  Biso   1.000  Al
  Al3024   1.0000 0.54546  0.18181  0.72728  Biso   1.000  Al
  Al3025   1.0000 0.54546  0.22727  0.77273  Biso   1.000  Al
  Al3026   1.0000 0.59092  0.18181  0.77273  Biso   1.000  Al
  Al3027   1.0000 0.59091  0.22727  0.72728  Biso   1.000  Al
  Al3028   1.0000 0.54546  0.18181  0.81819  Biso   1.000  Al
  Al3029   1.0000 0.54546  0.22727  0.86364  Biso   1.000  Al
  Al3030   1.0000 0.59092  0.18181  0.86364  Biso   1.000  Al
  Al3031   1.0000 0.59092  0.22727  0.81819  Biso   1.000  Al
  Al3032   1.0000 0.54546  0.18181  0.90909  Biso   1.000  Al
  Al3033   1.0000 0.54546  0.22727  0.95455  Biso   1.000  Al
  Al3034   1.0000 0.59092  0.18181  0.95455  Biso   1.000  Al
  Al3035   1.0000 0.59092  0.22726  0.90909  Biso   1.000  Al
  Al3036   1.0000 0.54546  0.27272  0.00000  Biso   1.000  Al
  Al3037   1.0000 0.54546  0.31817  0.04545  Biso   1.000  Al
  Al3038   1.0000 0.59092  0.27272  0.04545  Biso   1.000  Al
  Al3039   1.0000 0.59092  0.31817  0.00000  Biso   1.000  Al
  Al3040   1.0000 0.54546  0.27272  0.09091  Biso   1.000  Al
  Al3041   1.0000 0.54546  0.31818  0.13636  Biso   1.000  Al
  Al3042   1.0000 0.59092  0.27272  0.13636  Biso   1.000  Al
  Al3043   1.0000 0.59092  0.31817  0.09091  Biso   1.000  Al
  Al3044   1.0000 0.54546  0.27272  0.18181  Biso   1.000  Al
  Al3045   1.0000 0.54546  0.31818  0.22727  Biso   1.000  Al
  Al3046   1.0000 0.59091  0.27272  0.22727  Biso   1.000  Al
  Al3047   1.0000 0.59091  0.31817  0.18181  Biso   1.000  Al
  Al3048   1.0000 0.54546  0.27272  0.27272  Biso   1.000  Al
  Al3049   1.0000 0.54546  0.31818  0.31818  Biso   1.000  Al
  Al3050   1.0000 0.59091  0.27272  0.31818  Biso   1.000  Al
  Al3051   1.0000 0.59091  0.31818  0.27272  Biso   1.000  Al
  Al3052   1.0000 0.54546  0.27272  0.36363  Biso   1.000  Al
  Al3053   1.0000 0.54546  0.31818  0.40909  Biso   1.000  Al
  Al3054   1.0000 0.59091  0.27272  0.40909  Biso   1.000  Al
  Al3055   1.0000 0.59091  0.31818  0.36363  Biso   1.000  Al
  Al3056   1.0000 0.54546  0.27272  0.45454  Biso   1.000  Al
  Al3057   1.0000 0.54546  0.31818  0.50000  Biso   1.000  Al
  Al3058   1.0000 0.59091  0.27272  0.50000  Biso   1.000  Al
  Al3059   1.0000 0.59091  0.31818  0.45454  Biso   1.000  Al
  Al3060   1.0000 0.54546  0.27272  0.54546  Biso   1.000  Al
  Al3061   1.0000 0.54546  0.31818  0.59091  Biso   1.000  Al
  Al3062   1.0000 0.59091  0.27272  0.59091  Biso   1.000  Al
  Al3063   1.0000 0.59091  0.31818  0.54546  Biso   1.000  Al
  Al3064   1.0000 0.54546  0.27272  0.63637  Biso   1.000  Al
  Al3065   1.0000 0.54546  0.31818  0.68182  Biso   1.000  Al
  Al3066   1.0000 0.59091  0.27272  0.68182  Biso   1.000  Al
  Al3067   1.0000 0.59091  0.31818  0.63637  Biso   1.000  Al
  Al3068   1.0000 0.54546  0.27272  0.72728  Biso   1.000  Al
  Al3069   1.0000 0.54546  0.31818  0.77273  Biso   1.000  Al
  Al3070   1.0000 0.59091  0.27272  0.77273  Biso   1.000  Al
  Al3071   1.0000 0.59091  0.31818  0.72728  Biso   1.000  Al
  Al3072   1.0000 0.54546  0.27272  0.81819  Biso   1.000  Al
  Al3073   1.0000 0.54546  0.31818  0.86364  Biso   1.000  Al
  Al3074   1.0000 0.59092  0.27272  0.86364  Biso   1.000  Al
  Al3075   1.0000 0.59091  0.31817  0.81819  Biso   1.000  Al
  Al3076   1.0000 0.54546  0.27272  0.90909  Biso   1.000  Al
  Al3077   1.0000 0.54546  0.31817  0.95455  Biso   1.000  Al
  Al3078   1.0000 0.59092  0.27272  0.95455  Biso   1.000  Al
  Al3079   1.0000 0.59092  0.31817  0.90909  Biso   1.000  Al
  Al3080   1.0000 0.54546  0.36363  1.00000  Biso   1.000  Al
  Al3081   1.0000 0.54546  0.40909  0.04545  Biso   1.000  Al
  Al3082   1.0000 0.59091  0.36363  0.04545  Biso   1.000  Al
  Al3083   1.0000 0.59091  0.40909  1.00000  Biso   1.000  Al
  Al3084   1.0000 0.54546  0.36363  0.09091  Biso   1.000  Al
  Al3085   1.0000 0.54546  0.40909  0.13636  Biso   1.000  Al
  Al3086   1.0000 0.59091  0.36363  0.13636  Biso   1.000  Al
  Al3087   1.0000 0.59091  0.40909  0.09091  Biso   1.000  Al
  Al3088   1.0000 0.54546  0.36363  0.18181  Biso   1.000  Al
  Al3089   1.0000 0.54546  0.40909  0.22727  Biso   1.000  Al
  Al3090   1.0000 0.59091  0.36363  0.22727  Biso   1.000  Al
  Al3091   1.0000 0.59091  0.40909  0.18181  Biso   1.000  Al
  Al3092   1.0000 0.54546  0.36363  0.27272  Biso   1.000  Al
  Al3093   1.0000 0.54546  0.40909  0.31818  Biso   1.000  Al
  Al3094   1.0000 0.59091  0.36363  0.31818  Biso   1.000  Al
  Al3095   1.0000 0.59091  0.40909  0.27272  Biso   1.000  Al
  Al3096   1.0000 0.54546  0.36363  0.36363  Biso   1.000  Al
  Al3097   1.0000 0.54546  0.40909  0.40909  Biso   1.000  Al
  Al3098   1.0000 0.59091  0.36363  0.40909  Biso   1.000  Al
  Al3099   1.0000 0.59091  0.40909  0.36363  Biso   1.000  Al
  Al3100   1.0000 0.54546  0.36363  0.45454  Biso   1.000  Al
  Al3101   1.0000 0.54546  0.40909  0.50000  Biso   1.000  Al
  Al3102   1.0000 0.59091  0.36363  0.50000  Biso   1.000  Al
  Al3103   1.0000 0.59091  0.40909  0.45454  Biso   1.000  Al
  Al3104   1.0000 0.54546  0.36363  0.54546  Biso   1.000  Al
  Al3105   1.0000 0.54546  0.40909  0.59091  Biso   1.000  Al
  Al3106   1.0000 0.59091  0.36363  0.59091  Biso   1.000  Al
  Al3107   1.0000 0.59091  0.40909  0.54546  Biso   1.000  Al
  Al3108   1.0000 0.54546  0.36363  0.63637  Biso   1.000  Al
  Al3109   1.0000 0.54546  0.40909  0.68182  Biso   1.000  Al
  Al3110   1.0000 0.59091  0.36363  0.68182  Biso   1.000  Al
  Al3111   1.0000 0.59091  0.40909  0.63637  Biso   1.000  Al
  Al3112   1.0000 0.54546  0.36363  0.72728  Biso   1.000  Al
  Al3113   1.0000 0.54546  0.40909  0.77273  Biso   1.000  Al
  Al3114   1.0000 0.59091  0.36363  0.77273  Biso   1.000  Al
  Al3115   1.0000 0.59091  0.40909  0.72728  Biso   1.000  Al
  Al3116   1.0000 0.54546  0.36363  0.81819  Biso   1.000  Al
  Al3117   1.0000 0.54546  0.40909  0.86364  Biso   1.000  Al
  Al3118   1.0000 0.59091  0.36363  0.86364  Biso   1.000  Al
  Al3119   1.0000 0.59091  0.40909  0.81819  Biso   1.000  Al
  Al3120   1.0000 0.54546  0.36363  0.90909  Biso   1.000  Al
  Al3121   1.0000 0.54546  0.40909  0.95455  Biso   1.000  Al
  Al3122   1.0000 0.59091  0.36363  0.95455  Biso   1.000  Al
  Al3123   1.0000 0.59091  0.40909  0.90909  Biso   1.000  Al
  Al3124   1.0000 0.54546  0.45454  1.00000  Biso   1.000  Al
  Al3125   1.0000 0.54546  0.50000  0.04545  Biso   1.000  Al
  Al3126   1.0000 0.59091  0.45454  0.04545  Biso   1.000  Al
  Al3127   1.0000 0.59091  0.50000  1.00000  Biso   1.000  Al
  Al3128   1.0000 0.54546  0.45454  0.09091  Biso   1.000  Al
  Al3129   1.0000 0.54546  0.50000  0.13636  Biso   1.000  Al
  Al3130   1.0000 0.59091  0.45454  0.13636  Biso   1.000  Al
  Al3131   1.0000 0.59091  0.50000  0.09091  Biso   1.000  Al
  Al3132   1.0000 0.54546  0.45454  0.18181  Biso   1.000  Al
  Al3133   1.0000 0.54546  0.50000  0.22727  Biso   1.000  Al
  Al3134   1.0000 0.59091  0.45454  0.22727  Biso   1.000  Al
  Al3135   1.0000 0.59091  0.50000  0.18181  Biso   1.000  Al
  Al3136   1.0000 0.54546  0.45454  0.27272  Biso   1.000  Al
  Al3137   1.0000 0.54546  0.50000  0.31818  Biso   1.000  Al
  Al3138   1.0000 0.59091  0.45454  0.31818  Biso   1.000  Al
  Al3139   1.0000 0.59091  0.50000  0.27272  Biso   1.000  Al
  Al3140   1.0000 0.54546  0.45454  0.36363  Biso   1.000  Al
  Al3141   1.0000 0.54546  0.50000  0.40909  Biso   1.000  Al
  Al3142   1.0000 0.59091  0.45454  0.40909  Biso   1.000  Al
  Al3143   1.0000 0.59091  0.50000  0.36363  Biso   1.000  Al
  Al3144   1.0000 0.54546  0.45454  0.45454  Biso   1.000  Al
  Al3145   1.0000 0.54546  0.50000  0.50000  Biso   1.000  Al
  Al3146   1.0000 0.59091  0.45454  0.50000  Biso   1.000  Al
  Al3147   1.0000 0.59091  0.50000  0.45454  Biso   1.000  Al
  Al3148   1.0000 0.54546  0.45454  0.54546  Biso   1.000  Al
  Al3149   1.0000 0.54546  0.50000  0.59091  Biso   1.000  Al
  Al3150   1.0000 0.59091  0.45454  0.59091  Biso   1.000  Al
  Al3151   1.0000 0.59091  0.50000  0.54546  Biso   1.000  Al
  Al3152   1.0000 0.54546  0.45454  0.63637  Biso   1.000  Al
  Al3153   1.0000 0.54546  0.50000  0.68182  Biso   1.000  Al
  Al3154   1.0000 0.59091  0.45454  0.68182  Biso   1.000  Al
  Al3155   1.0000 0.59091  0.50000  0.63637  Biso   1.000  Al
  Al3156   1.0000 0.54546  0.45454  0.72728  Biso   1.000  Al
  Al3157   1.0000 0.54546  0.50000  0.77273  Biso   1.000  Al
  Al3158   1.0000 0.59091  0.45454  0.77273  Biso   1.000  Al
  Al3159   1.0000 0.59091  0.50000  0.72728  Biso   1.000  Al
  Al3160   1.0000 0.54546  0.45454  0.81819  Biso   1.000  Al
  Al3161   1.0000 0.54546  0.50000  0.86364  Biso   1.000  Al
  Al3162   1.0000 0.59091  0.45454  0.86364  Biso   1.000  Al
  Al3163   1.0000 0.59091  0.50000  0.81819  Biso   1.000  Al
  Al3164   1.0000 0.54546  0.45454  0.90909  Biso   1.000  Al
  Al3165   1.0000 0.54546  0.50000  0.95455  Biso   1.000  Al
  Al3166   1.0000 0.59091  0.45454  0.95455  Biso   1.000  Al
  Al3167   1.0000 0.59091  0.50000  0.90909  Biso   1.000  Al
  Al3168   1.0000 0.54546  0.54546  1.00000  Biso   1.000  Al
  Al3169   1.0000 0.54546  0.59091  0.04545  Biso   1.000  Al
  Al3170   1.0000 0.59091  0.54546  0.04545  Biso   1.000  Al
  Al3171   1.0000 0.59091  0.59091  1.00000  Biso   1.000  Al
  Al3172   1.0000 0.54546  0.54546  0.09091  Biso   1.000  Al
  Al3173   1.0000 0.54546  0.59091  0.13636  Biso   1.000  Al
  Al3174   1.0000 0.59091  0.54546  0.13636  Biso   1.000  Al
  Al3175   1.0000 0.59091  0.59091  0.09091  Biso   1.000  Al
  Al3176   1.0000 0.54546  0.54546  0.18181  Biso   1.000  Al
  Al3177   1.0000 0.54546  0.59091  0.22727  Biso   1.000  Al
  Al3178   1.0000 0.59091  0.54546  0.22727  Biso   1.000  Al
  Al3179   1.0000 0.59091  0.59091  0.18181  Biso   1.000  Al
  Al3180   1.0000 0.54546  0.54546  0.27272  Biso   1.000  Al
  Al3181   1.0000 0.54546  0.59091  0.31818  Biso   1.000  Al
  Al3182   1.0000 0.59091  0.54546  0.31818  Biso   1.000  Al
  Al3183   1.0000 0.59091  0.59091  0.27272  Biso   1.000  Al
  Al3184   1.0000 0.54546  0.54546  0.36363  Biso   1.000  Al
  Al3185   1.0000 0.54546  0.59091  0.40909  Biso   1.000  Al
  Al3186   1.0000 0.59091  0.54546  0.40909  Biso   1.000  Al
  Al3187   1.0000 0.59091  0.59091  0.36363  Biso   1.000  Al
  Al3188   1.0000 0.54546  0.54546  0.45454  Biso   1.000  Al
  Al3189   1.0000 0.54546  0.59091  0.50000  Biso   1.000  Al
  Al3190   1.0000 0.59091  0.54546  0.50000  Biso   1.000  Al
  Al3191   1.0000 0.59091  0.59091  0.45454  Biso   1.000  Al
  Al3192   1.0000 0.54546  0.54546  0.54546  Biso   1.000  Al
  Al3193   1.0000 0.54546  0.59091  0.59091  Biso   1.000  Al
  Al3194   1.0000 0.59091  0.54546  0.59091  Biso   1.000  Al
  Al3195   1.0000 0.59091  0.59091  0.54546  Biso   1.000  Al
  Al3196   1.0000 0.54546  0.54546  0.63637  Biso   1.000  Al
  Al3197   1.0000 0.54546  0.59091  0.68182  Biso   1.000  Al
  Al3198   1.0000 0.59091  0.54546  0.68182  Biso   1.000  Al
  Al3199   1.0000 0.59091  0.59091  0.63637  Biso   1.000  Al
  Al3200   1.0000 0.54546  0.54546  0.72728  Biso   1.000  Al
  Al3201   1.0000 0.54546  0.59091  0.77273  Biso   1.000  Al
  Al3202   1.0000 0.59091  0.54546  0.77273  Biso   1.000  Al
  Al3203   1.0000 0.59091  0.59091  0.72728  Biso   1.000  Al
  Al3204   1.0000 0.54546  0.54546  0.81819  Biso   1.000  Al
  Al3205   1.0000 0.54546  0.59091  0.86364  Biso   1.000  Al
  Al3206   1.0000 0.59091  0.54546  0.86364  Biso   1.000  Al
  Al3207   1.0000 0.59091  0.59091  0.81819  Biso   1.000  Al
  Al3208   1.0000 0.54546  0.54546  0.90909  Biso   1.000  Al
  Al3209   1.0000 0.54546  0.59091  0.95455  Biso   1.000  Al
  Al3210   1.0000 0.59091  0.54546  0.95455  Biso   1.000  Al
  Al3211   1.0000 0.59091  0.59091  0.90909  Biso   1.000  Al
  Al3212   1.0000 0.54546  0.63637  0.00000  Biso   1.000  Al
  Al3213   1.0000 0.54546  0.68183  0.04545  Biso   1.000  Al
  Al3214   1.0000 0.59091  0.63637  0.04545  Biso   1.000  Al
  Al3215   1.0000 0.59092  0.68183  0.00000  Biso   1.000  Al
  Al3216   1.0000 0.54546  0.63637  0.09091  Biso   1.000  Al
  Al3217   1.0000 0.54546  0.68182  0.13636  Biso   1.000  Al
  Al3218   1.0000 0.59091  0.63637  0.13636  Biso   1.000  Al
  Al3219   1.0000 0.59092  0.68183  0.09091  Biso   1.000  Al
  Al3220   1.0000 0.54546  0.63637  0.18181  Biso   1.000  Al
  Al3221   1.0000 0.54546  0.68182  0.22727  Biso   1.000  Al
  Al3222   1.0000 0.59091  0.63637  0.22727  Biso   1.000  Al
  Al3223   1.0000 0.59091  0.68183  0.18181  Biso   1.000  Al
  Al3224   1.0000 0.54546  0.63637  0.27272  Biso   1.000  Al
  Al3225   1.0000 0.54546  0.68182  0.31818  Biso   1.000  Al
  Al3226   1.0000 0.59091  0.63637  0.31818  Biso   1.000  Al
  Al3227   1.0000 0.59091  0.68182  0.27272  Biso   1.000  Al
  Al3228   1.0000 0.54546  0.63637  0.36363  Biso   1.000  Al
  Al3229   1.0000 0.54546  0.68182  0.40909  Biso   1.000  Al
  Al3230   1.0000 0.59091  0.63637  0.40909  Biso   1.000  Al
  Al3231   1.0000 0.59091  0.68182  0.36363  Biso   1.000  Al
  Al3232   1.0000 0.54546  0.63637  0.45454  Biso   1.000  Al
  Al3233   1.0000 0.54546  0.68182  0.50000  Biso   1.000  Al
  Al3234   1.0000 0.59091  0.63637  0.50000  Biso   1.000  Al
  Al3235   1.0000 0.59091  0.68182  0.45454  Biso   1.000  Al
  Al3236   1.0000 0.54546  0.63637  0.54546  Biso   1.000  Al
  Al3237   1.0000 0.54546  0.68182  0.59091  Biso   1.000  Al
  Al3238   1.0000 0.59091  0.63637  0.59091  Biso   1.000  Al
  Al3239   1.0000 0.59091  0.68182  0.54546  Biso   1.000  Al
  Al3240   1.0000 0.54546  0.63637  0.63637  Biso   1.000  Al
  Al3241   1.0000 0.54546  0.68182  0.68182  Biso   1.000  Al
  Al3242   1.0000 0.59091  0.63637  0.68182  Biso   1.000  Al
  Al3243   1.0000 0.59091  0.68182  0.63637  Biso   1.000  Al
  Al3244   1.0000 0.54546  0.63637  0.72728  Biso   1.000  Al
  Al3245   1.0000 0.54546  0.68182  0.77273  Biso   1.000  Al
  Al3246   1.0000 0.59091  0.63637  0.77273  Biso   1.000  Al
  Al3247   1.0000 0.59091  0.68182  0.72728  Biso   1.000  Al
  Al3248   1.0000 0.54546  0.63637  0.81819  Biso   1.000  Al
  Al3249   1.0000 0.54546  0.68182  0.86364  Biso   1.000  Al
  Al3250   1.0000 0.59091  0.63637  0.86364  Biso   1.000  Al
  Al3251   1.0000 0.59091  0.68183  0.81819  Biso   1.000  Al
  Al3252   1.0000 0.54546  0.63637  0.90909  Biso   1.000  Al
  Al3253   1.0000 0.54546  0.68183  0.95455  Biso   1.000  Al
  Al3254   1.0000 0.59091  0.63637  0.95455  Biso   1.000  Al
  Al3255   1.0000 0.59092  0.68183  0.90909  Biso   1.000  Al
  Al3256   1.0000 0.54546  0.72728  1.00000  Biso   1.000  Al
  Al3257   1.0000 0.54546  0.77273  0.04545  Biso   1.000  Al
  Al3258   1.0000 0.59092  0.72728  0.04545  Biso   1.000  Al
  Al3259   1.0000 0.59092  0.77274  1.00000  Biso   1.000  Al
  Al3260   1.0000 0.54546  0.72728  0.09091  Biso   1.000  Al
  Al3261   1.0000 0.54546  0.77273  0.13636  Biso   1.000  Al
  Al3262   1.0000 0.59092  0.72728  0.13636  Biso   1.000  Al
  Al3263   1.0000 0.59092  0.77274  0.09091  Biso   1.000  Al
  Al3264   1.0000 0.54546  0.72728  0.18181  Biso   1.000  Al
  Al3265   1.0000 0.54546  0.77273  0.22727  Biso   1.000  Al
  Al3266   1.0000 0.59091  0.72728  0.22727  Biso   1.000  Al
  Al3267   1.0000 0.59092  0.77273  0.18181  Biso   1.000  Al
  Al3268   1.0000 0.54546  0.72728  0.27272  Biso   1.000  Al
  Al3269   1.0000 0.54546  0.77273  0.31818  Biso   1.000  Al
  Al3270   1.0000 0.59091  0.72728  0.31818  Biso   1.000  Al
  Al3271   1.0000 0.59091  0.77273  0.27272  Biso   1.000  Al
  Al3272   1.0000 0.54546  0.72728  0.36363  Biso   1.000  Al
  Al3273   1.0000 0.54546  0.77273  0.40909  Biso   1.000  Al
  Al3274   1.0000 0.59091  0.72728  0.40909  Biso   1.000  Al
  Al3275   1.0000 0.59091  0.77273  0.36363  Biso   1.000  Al
  Al3276   1.0000 0.54546  0.72728  0.45454  Biso   1.000  Al
  Al3277   1.0000 0.54546  0.77273  0.50000  Biso   1.000  Al
  Al3278   1.0000 0.59091  0.72728  0.50000  Biso   1.000  Al
  Al3279   1.0000 0.59091  0.77273  0.45454  Biso   1.000  Al
  Al3280   1.0000 0.54546  0.72728  0.54546  Biso   1.000  Al
  Al3281   1.0000 0.54546  0.77273  0.59091  Biso   1.000  Al
  Al3282   1.0000 0.59091  0.72728  0.59091  Biso   1.000  Al
  Al3283   1.0000 0.59091  0.77273  0.54546  Biso   1.000  Al
  Al3284   1.0000 0.54546  0.72728  0.63637  Biso   1.000  Al
  Al3285   1.0000 0.54546  0.77273  0.68182  Biso   1.000  Al
  Al3286   1.0000 0.59091  0.72728  0.68182  Biso   1.000  Al
  Al3287   1.0000 0.59091  0.77273  0.63637  Biso   1.000  Al
  Al3288   1.0000 0.54546  0.72728  0.72728  Biso   1.000  Al
  Al3289   1.0000 0.54546  0.77273  0.77273  Biso   1.000  Al
  Al3290   1.0000 0.59091  0.72728  0.77273  Biso   1.000  Al
  Al3291   1.0000 0.59091  0.77273  0.72728  Biso   1.000  Al
  Al3292   1.0000 0.54546  0.72728  0.81819  Biso   1.000  Al
  Al3293   1.0000 0.54546  0.77273  0.86364  Biso   1.000  Al
  Al3294   1.0000 0.59092  0.72728  0.86364  Biso   1.000  Al
  Al3295   1.0000 0.59092  0.77273  0.81819  Biso   1.000  Al
  Al3296   1.0000 0.54546  0.72728  0.90909  Biso   1.000  Al
  Al3297   1.0000 0.54546  0.77273  0.95455  Biso   1.000  Al
  Al3298   1.0000 0.59092  0.72728  0.95455  Biso   1.000  Al
  Al3299   1.0000 0.59092  0.77274  0.90909  Biso   1.000  Al
  Al3300   1.0000 0.54546  0.81819  0.00000  Biso   1.000  Al
  Al3301   1.0000 0.54546  0.86364  0.04545  Biso   1.000  Al
  Al3302   1.0000 0.59092  0.81819  0.04545  Biso   1.000  Al
  Al3303   1.0000 0.59092  0.86364  1.00000  Biso   1.000  Al
  Al3304   1.0000 0.54546  0.81819  0.09091  Biso   1.000  Al
  Al3305   1.0000 0.54546  0.86364  0.13636  Biso   1.000  Al
  Al3306   1.0000 0.59092  0.81819  0.13636  Biso   1.000  Al
  Al3307   1.0000 0.59092  0.86364  0.09090  Biso   1.000  Al
  Al3308   1.0000 0.54546  0.81819  0.18181  Biso   1.000  Al
  Al3309   1.0000 0.54546  0.86364  0.22727  Biso   1.000  Al
  Al3310   1.0000 0.59092  0.81819  0.22727  Biso   1.000  Al
  Al3311   1.0000 0.59092  0.86364  0.18181  Biso   1.000  Al
  Al3312   1.0000 0.54546  0.81819  0.27272  Biso   1.000  Al
  Al3313   1.0000 0.54546  0.86364  0.31818  Biso   1.000  Al
  Al3314   1.0000 0.59091  0.81819  0.31817  Biso   1.000  Al
  Al3315   1.0000 0.59092  0.86364  0.27272  Biso   1.000  Al
  Al3316   1.0000 0.54546  0.81819  0.36363  Biso   1.000  Al
  Al3317   1.0000 0.54546  0.86364  0.40909  Biso   1.000  Al
  Al3318   1.0000 0.59091  0.81819  0.40909  Biso   1.000  Al
  Al3319   1.0000 0.59091  0.86364  0.36363  Biso   1.000  Al
  Al3320   1.0000 0.54546  0.81819  0.45454  Biso   1.000  Al
  Al3321   1.0000 0.54546  0.86364  0.50000  Biso   1.000  Al
  Al3322   1.0000 0.59091  0.81819  0.50000  Biso   1.000  Al
  Al3323   1.0000 0.59091  0.86364  0.45454  Biso   1.000  Al
  Al3324   1.0000 0.54546  0.81819  0.54546  Biso   1.000  Al
  Al3325   1.0000 0.54546  0.86364  0.59091  Biso   1.000  Al
  Al3326   1.0000 0.59091  0.81819  0.59091  Biso   1.000  Al
  Al3327   1.0000 0.59091  0.86364  0.54546  Biso   1.000  Al
  Al3328   1.0000 0.54546  0.81819  0.63637  Biso   1.000  Al
  Al3329   1.0000 0.54546  0.86364  0.68182  Biso   1.000  Al
  Al3330   1.0000 0.59091  0.81819  0.68183  Biso   1.000  Al
  Al3331   1.0000 0.59091  0.86364  0.63637  Biso   1.000  Al
  Al3332   1.0000 0.54546  0.81819  0.72728  Biso   1.000  Al
  Al3333   1.0000 0.54546  0.86364  0.77273  Biso   1.000  Al
  Al3334   1.0000 0.59092  0.81819  0.77273  Biso   1.000  Al
  Al3335   1.0000 0.59092  0.86364  0.72728  Biso   1.000  Al
  Al3336   1.0000 0.54546  0.81819  0.81819  Biso   1.000  Al
  Al3337   1.0000 0.54546  0.86364  0.86364  Biso   1.000  Al
  Al3338   1.0000 0.59092  0.81819  0.86364  Biso   1.000  Al
  Al3339   1.0000 0.59092  0.86364  0.81819  Biso   1.000  Al
  Al3340   1.0000 0.54546  0.81819  0.90909  Biso   1.000  Al
  Al3341   1.0000 0.54546  0.86364  0.95455  Biso   1.000  Al
  Al3342   1.0000 0.59092  0.81819  0.95455  Biso   1.000  Al
  Al3343   1.0000 0.59092  0.86364  0.90910  Biso   1.000  Al
  Al3344   1.0000 0.54546  0.90909  1.00000  Biso   1.000  Al
  Al3345   1.0000 0.54546  0.95455  0.04545  Biso   1.000  Al
  Al3346   1.0000 0.59092  0.90910  0.04545  Biso   1.000  Al
  Al3347   1.0000 0.59092  0.95455  1.00000  Biso   1.000  Al
  Al3348   1.0000 0.54546  0.90909  0.09091  Biso   1.000  Al
  Al3349   1.0000 0.54546  0.95455  0.13636  Biso   1.000  Al
  Al3350   1.0000 0.59092  0.90910  0.13636  Biso   1.000  Al
  Al3351   1.0000 0.59092  0.95455  0.09090  Biso   1.000  Al
  Al3352   1.0000 0.54546  0.90909  0.18181  Biso   1.000  Al
  Al3353   1.0000 0.54546  0.95455  0.22727  Biso   1.000  Al
  Al3354   1.0000 0.59092  0.90909  0.22726  Biso   1.000  Al
  Al3355   1.0000 0.59092  0.95455  0.18181  Biso   1.000  Al
  Al3356   1.0000 0.54546  0.90909  0.27272  Biso   1.000  Al
  Al3357   1.0000 0.54546  0.95455  0.31817  Biso   1.000  Al
  Al3358   1.0000 0.59092  0.90909  0.31817  Biso   1.000  Al
  Al3359   1.0000 0.59092  0.95455  0.27272  Biso   1.000  Al
  Al3360   1.0000 0.54546  0.90909  0.36363  Biso   1.000  Al
  Al3361   1.0000 0.54546  0.95455  0.40909  Biso   1.000  Al
  Al3362   1.0000 0.59091  0.90909  0.40909  Biso   1.000  Al
  Al3363   1.0000 0.59091  0.95455  0.36363  Biso   1.000  Al
  Al3364   1.0000 0.54546  0.90909  0.45454  Biso   1.000  Al
  Al3365   1.0000 0.54546  0.95455  0.50000  Biso   1.000  Al
  Al3366   1.0000 0.59091  0.90909  0.50000  Biso   1.000  Al
  Al3367   1.0000 0.59091  0.95455  0.45454  Biso   1.000  Al
  Al3368   1.0000 0.54546  0.90909  0.54546  Biso   1.000  Al
  Al3369   1.0000 0.54546  0.95455  0.59091  Biso   1.000  Al
  Al3370   1.0000 0.59091  0.90909  0.59091  Biso   1.000  Al
  Al3371   1.0000 0.59091  0.95455  0.54546  Biso   1.000  Al
  Al3372   1.0000 0.54546  0.90909  0.63637  Biso   1.000  Al
  Al3373   1.0000 0.54546  0.95455  0.68183  Biso   1.000  Al
  Al3374   1.0000 0.59092  0.90909  0.68183  Biso   1.000  Al
  Al3375   1.0000 0.59091  0.95455  0.63637  Biso   1.000  Al
  Al3376   1.0000 0.54546  0.90909  0.72728  Biso   1.000  Al
  Al3377   1.0000 0.54546  0.95455  0.77273  Biso   1.000  Al
  Al3378   1.0000 0.59092  0.90909  0.77274  Biso   1.000  Al
  Al3379   1.0000 0.59092  0.95455  0.72728  Biso   1.000  Al
  Al3380   1.0000 0.54546  0.90909  0.81819  Biso   1.000  Al
  Al3381   1.0000 0.54546  0.95455  0.86364  Biso   1.000  Al
  Al3382   1.0000 0.59092  0.90910  0.86364  Biso   1.000  Al
  Al3383   1.0000 0.59092  0.95455  0.81819  Biso   1.000  Al
  Al3384   1.0000 0.54546  0.90909  0.90909  Biso   1.000  Al
  Al3385   1.0000 0.54546  0.95455  0.95455  Biso   1.000  Al
  Al3386   1.0000 0.59092  0.90910  0.95455  Biso   1.000  Al
  Al3387   1.0000 0.59092  0.95455  0.90910  Biso   1.000  Al
  Al3388   1.0000 0.63638  1.00000  0.00000  Biso   1.000  Al
  Al3389   1.0000 0.63638  0.04545  0.04545  Biso   1.000  Al
  Al3390   1.0000 0.68185  0.00000  0.04545  Biso   1.000  Al
  Al3391   1.0000 0.68185  0.04545  1.00000  Biso   1.000  Al
  Al3392   1.0000 0.63638  0.00000  0.09090  Biso   1.000  Al
  Al3393   1.0000 0.63638  0.04545  0.13635  Biso   1.000  Al
  Al3394   1.0000 0.68184  0.00000  0.13635  Biso   1.000  Al
  Al3395   1.0000 0.68185  0.04545  0.09090  Biso   1.000  Al
  Al3396   1.0000 0.63638  1.00000  0.18181  Biso   1.000  Al
  Al3397   1.0000 0.63638  0.04545  0.22726  Biso   1.000  Al
  Al3398   1.0000 0.68184  0.00000  0.22726  Biso   1.000  Al
  Al3399   1.0000 0.68184  0.04545  0.18180  Biso   1.000  Al
  Al3400   1.0000 0.63638  1.00000  0.27272  Biso   1.000  Al
  Al3401   1.0000 0.63637  0.04545  0.31817  Biso   1.000  Al
  Al3402   1.0000 0.68183  1.00000  0.31817  Biso   1.000  Al
  Al3403   1.0000 0.68183  0.04545  0.27271  Biso   1.000  Al
  Al3404   1.0000 0.63637  1.00000  0.36363  Biso   1.000  Al
  Al3405   1.0000 0.63637  0.04545  0.40909  Biso   1.000  Al
  Al3406   1.0000 0.68183  1.00000  0.40908  Biso   1.000  Al
  Al3407   1.0000 0.68183  0.04545  0.36363  Biso   1.000  Al
  Al3408   1.0000 0.63637  1.00000  0.45454  Biso   1.000  Al
  Al3409   1.0000 0.63637  0.04545  0.50000  Biso   1.000  Al
  Al3410   1.0000 0.68182  1.00000  0.50000  Biso   1.000  Al
  Al3411   1.0000 0.68183  0.04545  0.45454  Biso   1.000  Al
  Al3412   1.0000 0.63637  0.00000  0.54546  Biso   1.000  Al
  Al3413   1.0000 0.63637  0.04545  0.59091  Biso   1.000  Al
  Al3414   1.0000 0.68183  0.00000  0.59092  Biso   1.000  Al
  Al3415   1.0000 0.68183  0.04545  0.54546  Biso   1.000  Al
  Al3416   1.0000 0.63637  1.00000  0.63637  Biso   1.000  Al
  Al3417   1.0000 0.63637  0.04545  0.68183  Biso   1.000  Al
  Al3418   1.0000 0.68183  1.00000  0.68183  Biso   1.000  Al
  Al3419   1.0000 0.68183  0.04545  0.63637  Biso   1.000  Al
  Al3420   1.0000 0.63638  1.00000  0.72728  Biso   1.000  Al
  Al3421   1.0000 0.63638  0.04545  0.77274  Biso   1.000  Al
  Al3422   1.0000 0.68184  0.00000  0.77274  Biso   1.000  Al
  Al3423   1.0000 0.68183  0.04545  0.72729  Biso   1.000  Al
  Al3424   1.0000 0.63638  0.00000  0.81819  Biso   1.000  Al
  Al3425   1.0000 0.63638  0.04545  0.86365  Biso   1.000  Al
  Al3426   1.0000 0.68184  1.00000  0.86365  Biso   1.000  Al
  Al3427   1.0000 0.68184  0.04545  0.81820  Biso   1.000  Al
  Al3428   1.0000 0.63638  1.00000  0.90910  Biso   1.000  Al
  Al3429   1.0000 0.63638  0.04545  0.95455  Biso   1.000  Al
  Al3430   1.0000 0.68185  1.00000  0.95455  Biso   1.000  Al
  Al3431   1.0000 0.68185  0.04545  0.90910  Biso   1.000  Al
  Al3432   1.0000 0.63638  0.09090  1.00000  Biso   1.000  Al
  Al3433   1.0000 0.63638  0.13635  0.04545  Biso   1.000  Al
  Al3434   1.0000 0.68185  0.09090  0.04545  Biso   1.000  Al
  Al3435   1.0000 0.68184  0.13635  0.00000  Biso   1.000  Al
  Al3436   1.0000 0.63638  0.09090  0.09090  Biso   1.000  Al
  Al3437   1.0000 0.63638  0.13635  0.13635  Biso   1.000  Al
  Al3438   1.0000 0.68184  0.09090  0.13635  Biso   1.000  Al
  Al3439   1.0000 0.68184  0.13635  0.09090  Biso   1.000  Al
  Al3440   1.0000 0.63638  0.09090  0.18181  Biso   1.000  Al
  Al3441   1.0000 0.63638  0.13636  0.22726  Biso   1.000  Al
  Al3442   1.0000 0.68184  0.09090  0.22726  Biso   1.000  Al
  Al3443   1.0000 0.68184  0.13635  0.18180  Biso   1.000  Al
  Al3444   1.0000 0.63637  0.09090  0.27272  Biso   1.000  Al
  Al3445   1.0000 0.63637  0.13636  0.31817  Biso   1.000  Al
  Al3446   1.0000 0.68183  0.09090  0.31817  Biso   1.000  Al
  Al3447   1.0000 0.68183  0.13636  0.27271  Biso   1.000  Al
  Al3448   1.0000 0.63637  0.09091  0.36363  Biso   1.000  Al
  Al3449   1.0000 0.63637  0.13636  0.40909  Biso   1.000  Al
  Al3450   1.0000 0.68183  0.09091  0.40908  Biso   1.000  Al
  Al3451   1.0000 0.68183  0.13636  0.36363  Biso   1.000  Al
  Al3452   1.0000 0.63637  0.09091  0.45454  Biso   1.000  Al
  Al3453   1.0000 0.63637  0.13636  0.50000  Biso   1.000  Al
  Al3454   1.0000 0.68182  0.09091  0.50000  Biso   1.000  Al
  Al3455   1.0000 0.68182  0.13636  0.45454  Biso   1.000  Al
  Al3456   1.0000 0.63637  0.09091  0.54546  Biso   1.000  Al
  Al3457   1.0000 0.63637  0.13636  0.59091  Biso   1.000  Al
  Al3458   1.0000 0.68183  0.09091  0.59092  Biso   1.000  Al
  Al3459   1.0000 0.68182  0.13636  0.54546  Biso   1.000  Al
  Al3460   1.0000 0.63637  0.09091  0.63637  Biso   1.000  Al
  Al3461   1.0000 0.63637  0.13636  0.68183  Biso   1.000  Al
  Al3462   1.0000 0.68183  0.09090  0.68183  Biso   1.000  Al
  Al3463   1.0000 0.68183  0.13636  0.63637  Biso   1.000  Al
  Al3464   1.0000 0.63637  0.09090  0.72728  Biso   1.000  Al
  Al3465   1.0000 0.63638  0.13636  0.77274  Biso   1.000  Al
  Al3466   1.0000 0.68184  0.09090  0.77274  Biso   1.000  Al
  Al3467   1.0000 0.68183  0.13636  0.72729  Biso   1.000  Al
  Al3468   1.0000 0.63638  0.09090  0.81819  Biso   1.000  Al
  Al3469   1.0000 0.63638  0.13635  0.86365  Biso   1.000  Al
  Al3470   1.0000 0.68184  0.09090  0.86365  Biso   1.000  Al
  Al3471   1.0000 0.68184  0.13635  0.81820  Biso   1.000  Al
  Al3472   1.0000 0.63638  0.09090  0.90910  Biso   1.000  Al
  Al3473   1.0000 0.63638  0.13635  0.95455  Biso   1.000  Al
  Al3474   1.0000 0.68185  0.09090  0.95455  Biso   1.000  Al
  Al3475   1.0000 0.68184  0.13635  0.90910  Biso   1.000  Al
  Al3476   1.0000 0.63638  0.18181  0.00000  Biso   1.000  Al
  Al3477   1.0000 0.63638  0.22726  0.04545  Biso   1.000  Al
  Al3478   1.0000 0.68184  0.18180  0.04545  Biso   1.000  Al
  Al3479   1.0000 0.68184  0.22726  0.00000  Biso   1.000  Al
  Al3480   1.0000 0.63638  0.18181  0.09090  Biso   1.000  Al
  Al3481   1.0000 0.63638  0.22726  0.13636  Biso   1.000  Al
  Al3482   1.0000 0.68184  0.18180  0.13635  Biso   1.000  Al
  Al3483   1.0000 0.68184  0.22726  0.09090  Biso   1.000  Al
  Al3484   1.0000 0.63638  0.18181  0.18181  Biso   1.000  Al
  Al3485   1.0000 0.63637  0.22726  0.22726  Biso   1.000  Al
  Al3486   1.0000 0.68183  0.18181  0.22726  Biso   1.000  Al
  Al3487   1.0000 0.68183  0.22726  0.18181  Biso   1.000  Al
  Al3488   1.0000 0.63637  0.18181  0.27272  Biso   1.000  Al
  Al3489   1.0000 0.63637  0.22727  0.31817  Biso   1.000  Al
  Al3490   1.0000 0.68183  0.18181  0.31817  Biso   1.000  Al
  Al3491   1.0000 0.68183  0.22726  0.27272  Biso   1.000  Al
  Al3492   1.0000 0.63637  0.18181  0.36363  Biso   1.000  Al
  Al3493   1.0000 0.63637  0.22727  0.40909  Biso   1.000  Al
  Al3494   1.0000 0.68183  0.18181  0.40909  Biso   1.000  Al
  Al3495   1.0000 0.68183  0.22727  0.36363  Biso   1.000  Al
  Al3496   1.0000 0.63637  0.18181  0.45454  Biso   1.000  Al
  Al3497   1.0000 0.63637  0.22727  0.50000  Biso   1.000  Al
  Al3498   1.0000 0.68182  0.18181  0.50000  Biso   1.000  Al
  Al3499   1.0000 0.68182  0.22727  0.45454  Biso   1.000  Al
  Al3500   1.0000 0.63637  0.18181  0.54546  Biso   1.000  Al
  Al3501   1.0000 0.63637  0.22727  0.59091  Biso   1.000  Al
  Al3502   1.0000 0.68183  0.18181  0.59091  Biso   1.000  Al
  Al3503   1.0000 0.68182  0.22727  0.54546  Biso   1.000  Al
  Al3504   1.0000 0.63637  0.18181  0.63637  Biso   1.000  Al
  Al3505   1.0000 0.63637  0.22727  0.68183  Biso   1.000  Al
  Al3506   1.0000 0.68183  0.18181  0.68183  Biso   1.000  Al
  Al3507   1.0000 0.68183  0.22727  0.63637  Biso   1.000  Al
  Al3508   1.0000 0.63637  0.18181  0.72728  Biso   1.000  Al
  Al3509   1.0000 0.63637  0.22726  0.77274  Biso   1.000  Al
  Al3510   1.0000 0.68183  0.18181  0.77274  Biso   1.000  Al
  Al3511   1.0000 0.68183  0.22726  0.72728  Biso   1.000  Al
  Al3512   1.0000 0.63638  0.18181  0.81819  Biso   1.000  Al
  Al3513   1.0000 0.63638  0.22726  0.86364  Biso   1.000  Al
  Al3514   1.0000 0.68184  0.18180  0.86365  Biso   1.000  Al
  Al3515   1.0000 0.68183  0.22726  0.81819  Biso   1.000  Al
  Al3516   1.0000 0.63638  0.18181  0.90910  Biso   1.000  Al
  Al3517   1.0000 0.63638  0.22726  0.95455  Biso   1.000  Al
  Al3518   1.0000 0.68184  0.18180  0.95455  Biso   1.000  Al
  Al3519   1.0000 0.68184  0.22726  0.90910  Biso   1.000  Al
  Al3520   1.0000 0.63638  0.27272  1.00000  Biso   1.000  Al
  Al3521   1.0000 0.63637  0.31817  0.04545  Biso   1.000  Al
  Al3522   1.0000 0.68183  0.27271  0.04545  Biso   1.000  Al
  Al3523   1.0000 0.68183  0.31817  1.00000  Biso   1.000  Al
  Al3524   1.0000 0.63637  0.27272  0.09090  Biso   1.000  Al
  Al3525   1.0000 0.63637  0.31817  0.13636  Biso   1.000  Al
  Al3526   1.0000 0.68183  0.27271  0.13636  Biso   1.000  Al
  Al3527   1.0000 0.68183  0.31817  0.09090  Biso   1.000  Al
  Al3528   1.0000 0.63637  0.27272  0.18181  Biso   1.000  Al
  Al3529   1.0000 0.63637  0.31817  0.22727  Biso   1.000  Al
  Al3530   1.0000 0.68183  0.27272  0.22726  Biso   1.000  Al
  Al3531   1.0000 0.68183  0.31817  0.18181  Biso   1.000  Al
  Al3532   1.0000 0.63637  0.27272  0.27272  Biso   1.000  Al
  Al3533   1.0000 0.63637  0.31818  0.31818  Biso   1.000  Al
  Al3534   1.0000 0.68183  0.27272  0.31817  Biso   1.000  Al
  Al3535   1.0000 0.68183  0.31817  0.27272  Biso   1.000  Al
  Al3536   1.0000 0.63637  0.27272  0.36363  Biso   1.000  Al
  Al3537   1.0000 0.63637  0.31818  0.40909  Biso   1.000  Al
  Al3538   1.0000 0.68182  0.27272  0.40909  Biso   1.000  Al
  Al3539   1.0000 0.68182  0.31818  0.36363  Biso   1.000  Al
  Al3540   1.0000 0.63637  0.27272  0.45454  Biso   1.000  Al
  Al3541   1.0000 0.63637  0.31818  0.50000  Biso   1.000  Al
  Al3542   1.0000 0.68182  0.27272  0.50000  Biso   1.000  Al
  Al3543   1.0000 0.68182  0.31818  0.45454  Biso   1.000  Al
  Al3544   1.0000 0.63637  0.27272  0.54546  Biso   1.000  Al
  Al3545   1.0000 0.63637  0.31818  0.59091  Biso   1.000  Al
  Al3546   1.0000 0.68182  0.27272  0.59091  Biso   1.000  Al
  Al3547   1.0000 0.68182  0.31818  0.54546  Biso   1.000  Al
  Al3548   1.0000 0.63637  0.27272  0.63637  Biso   1.000  Al
  Al3549   1.0000 0.63637  0.31818  0.68182  Biso   1.000  Al
  Al3550   1.0000 0.68183  0.27272  0.68183  Biso   1.000  Al
  Al3551   1.0000 0.68182  0.31818  0.63637  Biso   1.000  Al
  Al3552   1.0000 0.63637  0.27272  0.72728  Biso   1.000  Al
  Al3553   1.0000 0.63637  0.31817  0.77273  Biso   1.000  Al
  Al3554   1.0000 0.68183  0.27272  0.77274  Biso   1.000  Al
  Al3555   1.0000 0.68183  0.31817  0.72728  Biso   1.000  Al
  Al3556   1.0000 0.63637  0.27272  0.81819  Biso   1.000  Al
  Al3557   1.0000 0.63637  0.31817  0.86364  Biso   1.000  Al
  Al3558   1.0000 0.68183  0.27271  0.86364  Biso   1.000  Al
  Al3559   1.0000 0.68183  0.31817  0.81819  Biso   1.000  Al
  Al3560   1.0000 0.63637  0.27272  0.90910  Biso   1.000  Al
  Al3561   1.0000 0.63637  0.31817  0.95455  Biso   1.000  Al
  Al3562   1.0000 0.68183  0.27271  0.95455  Biso   1.000  Al
  Al3563   1.0000 0.68183  0.31817  0.90910  Biso   1.000  Al
  Al3564   1.0000 0.63637  0.36363  1.00000  Biso   1.000  Al
  Al3565   1.0000 0.63637  0.40909  0.04545  Biso   1.000  Al
  Al3566   1.0000 0.68183  0.36363  0.04545  Biso   1.000  Al
  Al3567   1.0000 0.68183  0.40908  1.00000  Biso   1.000  Al
  Al3568   1.0000 0.63637  0.36363  0.09091  Biso   1.000  Al
  Al3569   1.0000 0.63637  0.40909  0.13636  Biso   1.000  Al
  Al3570   1.0000 0.68183  0.36363  0.13636  Biso   1.000  Al
  Al3571   1.0000 0.68183  0.40908  0.09091  Biso   1.000  Al
  Al3572   1.0000 0.63637  0.36363  0.18181  Biso   1.000  Al
  Al3573   1.0000 0.63637  0.40909  0.22727  Biso   1.000  Al
  Al3574   1.0000 0.68183  0.36363  0.22727  Biso   1.000  Al
  Al3575   1.0000 0.68183  0.40909  0.18181  Biso   1.000  Al
  Al3576   1.0000 0.63637  0.36363  0.27272  Biso   1.000  Al
  Al3577   1.0000 0.63637  0.40909  0.31818  Biso   1.000  Al
  Al3578   1.0000 0.68182  0.36363  0.31818  Biso   1.000  Al
  Al3579   1.0000 0.68182  0.40909  0.27272  Biso   1.000  Al
  Al3580   1.0000 0.63637  0.36363  0.36363  Biso   1.000  Al
  Al3581   1.0000 0.63637  0.40909  0.40909  Biso   1.000  Al
  Al3582   1.0000 0.68182  0.36363  0.40909  Biso   1.000  Al
  Al3583   1.0000 0.68182  0.40909  0.36363  Biso   1.000  Al
  Al3584   1.0000 0.63637  0.36363  0.45454  Biso   1.000  Al
  Al3585   1.0000 0.63637  0.40909  0.50000  Biso   1.000  Al
  Al3586   1.0000 0.68182  0.36363  0.50000  Biso   1.000  Al
  Al3587   1.0000 0.68182  0.40909  0.45454  Biso   1.000  Al
  Al3588   1.0000 0.63637  0.36363  0.54546  Biso   1.000  Al
  Al3589   1.0000 0.63637  0.40909  0.59091  Biso   1.000  Al
  Al3590   1.0000 0.68182  0.36363  0.59091  Biso   1.000  Al
  Al3591   1.0000 0.68182  0.40909  0.54546  Biso   1.000  Al
  Al3592   1.0000 0.63637  0.36363  0.63637  Biso   1.000  Al
  Al3593   1.0000 0.63637  0.40909  0.68182  Biso   1.000  Al
  Al3594   1.0000 0.68182  0.36363  0.68182  Biso   1.000  Al
  Al3595   1.0000 0.68182  0.40909  0.63637  Biso   1.000  Al
  Al3596   1.0000 0.63637  0.36363  0.72728  Biso   1.000  Al
  Al3597   1.0000 0.63637  0.40909  0.77273  Biso   1.000  Al
  Al3598   1.0000 0.68183  0.36363  0.77273  Biso   1.000  Al
  Al3599   1.0000 0.68182  0.40909  0.72728  Biso   1.000  Al
  Al3600   1.0000 0.63637  0.36363  0.81819  Biso   1.000  Al
  Al3601   1.0000 0.63637  0.40909  0.86364  Biso   1.000  Al
  Al3602   1.0000 0.68183  0.36363  0.86364  Biso   1.000  Al
  Al3603   1.0000 0.68183  0.40909  0.81819  Biso   1.000  Al
  Al3604   1.0000 0.63637  0.36363  0.90909  Biso   1.000  Al
  Al3605   1.0000 0.63637  0.40909  0.95455  Biso   1.000  Al
  Al3606   1.0000 0.68183  0.36363  0.95455  Biso   1.000  Al
  Al3607   1.0000 0.68183  0.40908  0.90909  Biso   1.000  Al
  Al3608   1.0000 0.63637  0.45454  1.00000  Biso   1.000  Al
  Al3609   1.0000 0.63637  0.50000  0.04545  Biso   1.000  Al
  Al3610   1.0000 0.68183  0.45454  0.04545  Biso   1.000  Al
  Al3611   1.0000 0.68182  0.50000  0.00000  Biso   1.000  Al
  Al3612   1.0000 0.63637  0.45454  0.09091  Biso   1.000  Al
  Al3613   1.0000 0.63637  0.50000  0.13636  Biso   1.000  Al
  Al3614   1.0000 0.68182  0.45454  0.13636  Biso   1.000  Al
  Al3615   1.0000 0.68182  0.50000  0.09091  Biso   1.000  Al
  Al3616   1.0000 0.63637  0.45454  0.18181  Biso   1.000  Al
  Al3617   1.0000 0.63637  0.50000  0.22727  Biso   1.000  Al
  Al3618   1.0000 0.68182  0.45454  0.22727  Biso   1.000  Al
  Al3619   1.0000 0.68182  0.50000  0.18181  Biso   1.000  Al
  Al3620   1.0000 0.63637  0.45454  0.27272  Biso   1.000  Al
  Al3621   1.0000 0.63637  0.50000  0.31818  Biso   1.000  Al
  Al3622   1.0000 0.68182  0.45454  0.31818  Biso   1.000  Al
  Al3623   1.0000 0.68182  0.50000  0.27272  Biso   1.000  Al
  Al3624   1.0000 0.63637  0.45454  0.36363  Biso   1.000  Al
  Al3625   1.0000 0.63637  0.50000  0.40909  Biso   1.000  Al
  Al3626   1.0000 0.68182  0.45454  0.40909  Biso   1.000  Al
  Al3627   1.0000 0.68182  0.50000  0.36363  Biso   1.000  Al
  Al3628   1.0000 0.63637  0.45454  0.45454  Biso   1.000  Al
  Al3629   1.0000 0.63637  0.50000  0.50000  Biso   1.000  Al
  Al3630   1.0000 0.68182  0.45454  0.50000  Biso   1.000  Al
  Al3631   1.0000 0.68182  0.50000  0.45454  Biso   1.000  Al
  Al3632   1.0000 0.63637  0.45454  0.54546  Biso   1.000  Al
  Al3633   1.0000 0.63637  0.50000  0.59091  Biso   1.000  Al
  Al3634   1.0000 0.68182  0.45454  0.59091  Biso   1.000  Al
  Al3635   1.0000 0.68182  0.50000  0.54546  Biso   1.000  Al
  Al3636   1.0000 0.63637  0.45454  0.63637  Biso   1.000  Al
  Al3637   1.0000 0.63637  0.50000  0.68182  Biso   1.000  Al
  Al3638   1.0000 0.68182  0.45454  0.68182  Biso   1.000  Al
  Al3639   1.0000 0.68182  0.50000  0.63637  Biso   1.000  Al
  Al3640   1.0000 0.63637  0.45454  0.72728  Biso   1.000  Al
  Al3641   1.0000 0.63637  0.50000  0.77273  Biso   1.000  Al
  Al3642   1.0000 0.68182  0.45454  0.77273  Biso   1.000  Al
  Al3643   1.0000 0.68182  0.50000  0.72728  Biso   1.000  Al
  Al3644   1.0000 0.63637  0.45454  0.81819  Biso   1.000  Al
  Al3645   1.0000 0.63637  0.50000  0.86364  Biso   1.000  Al
  Al3646   1.0000 0.68182  0.45454  0.86364  Biso   1.000  Al
  Al3647   1.0000 0.68182  0.50000  0.81819  Biso   1.000  Al
  Al3648   1.0000 0.63637  0.45454  0.90909  Biso   1.000  Al
  Al3649   1.0000 0.63637  0.50000  0.95455  Biso   1.000  Al
  Al3650   1.0000 0.68183  0.45454  0.95455  Biso   1.000  Al
  Al3651   1.0000 0.68182  0.50000  0.90909  Biso   1.000  Al
  Al3652   1.0000 0.63637  0.54546  1.00000  Biso   1.000  Al
  Al3653   1.0000 0.63637  0.59091  0.04545  Biso   1.000  Al
  Al3654   1.0000 0.68183  0.54546  0.04545  Biso   1.000  Al
  Al3655   1.0000 0.68183  0.59092  0.00000  Biso   1.000  Al
  Al3656   1.0000 0.63637  0.54546  0.09091  Biso   1.000  Al
  Al3657   1.0000 0.63637  0.59091  0.13636  Biso   1.000  Al
  Al3658   1.0000 0.68182  0.54546  0.13636  Biso   1.000  Al
  Al3659   1.0000 0.68183  0.59092  0.09091  Biso   1.000  Al
  Al3660   1.0000 0.63637  0.54546  0.18181  Biso   1.000  Al
  Al3661   1.0000 0.63637  0.59091  0.22727  Biso   1.000  Al
  Al3662   1.0000 0.68182  0.54546  0.22727  Biso   1.000  Al
  Al3663   1.0000 0.68183  0.59091  0.18181  Biso   1.000  Al
  Al3664   1.0000 0.63637  0.54546  0.27272  Biso   1.000  Al
  Al3665   1.0000 0.63637  0.59091  0.31818  Biso   1.000  Al
  Al3666   1.0000 0.68182  0.54546  0.31818  Biso   1.000  Al
  Al3667   1.0000 0.68182  0.59091  0.27272  Biso   1.000  Al
  Al3668   1.0000 0.63637  0.54546  0.36363  Biso   1.000  Al
  Al3669   1.0000 0.63637  0.59091  0.40909  Biso   1.000  Al
  Al3670   1.0000 0.68182  0.54546  0.40909  Biso   1.000  Al
  Al3671   1.0000 0.68182  0.59091  0.36363  Biso   1.000  Al
  Al3672   1.0000 0.63637  0.54546  0.45454  Biso   1.000  Al
  Al3673   1.0000 0.63637  0.59091  0.50000  Biso   1.000  Al
  Al3674   1.0000 0.68182  0.54546  0.50000  Biso   1.000  Al
  Al3675   1.0000 0.68182  0.59091  0.45454  Biso   1.000  Al
  Al3676   1.0000 0.63637  0.54546  0.54546  Biso   1.000  Al
  Al3677   1.0000 0.63637  0.59091  0.59091  Biso   1.000  Al
  Al3678   1.0000 0.68182  0.54546  0.59091  Biso   1.000  Al
  Al3679   1.0000 0.68182  0.59091  0.54546  Biso   1.000  Al
  Al3680   1.0000 0.63637  0.54546  0.63637  Biso   1.000  Al
  Al3681   1.0000 0.63637  0.59091  0.68182  Biso   1.000  Al
  Al3682   1.0000 0.68182  0.54546  0.68182  Biso   1.000  Al
  Al3683   1.0000 0.68182  0.59091  0.63637  Biso   1.000  Al
  Al3684   1.0000 0.63637  0.54546  0.72728  Biso   1.000  Al
  Al3685   1.0000 0.63637  0.59091  0.77273  Biso   1.000  Al
  Al3686   1.0000 0.68182  0.54546  0.77273  Biso   1.000  Al
  Al3687   1.0000 0.68182  0.59091  0.72728  Biso   1.000  Al
  Al3688   1.0000 0.63637  0.54546  0.81819  Biso   1.000  Al
  Al3689   1.0000 0.63637  0.59091  0.86364  Biso   1.000  Al
  Al3690   1.0000 0.68182  0.54546  0.86364  Biso   1.000  Al
  Al3691   1.0000 0.68183  0.59091  0.81819  Biso   1.000  Al
  Al3692   1.0000 0.63637  0.54546  0.90909  Biso   1.000  Al
  Al3693   1.0000 0.63637  0.59091  0.95455  Biso   1.000  Al
  Al3694   1.0000 0.68183  0.54546  0.95455  Biso   1.000  Al
  Al3695   1.0000 0.68183  0.59092  0.90909  Biso   1.000  Al
  Al3696   1.0000 0.63637  0.63637  1.00000  Biso   1.000  Al
  Al3697   1.0000 0.63637  0.68183  0.04545  Biso   1.000  Al
  Al3698   1.0000 0.68183  0.63637  0.04545  Biso   1.000  Al
  Al3699   1.0000 0.68183  0.68183  0.00000  Biso   1.000  Al
  Al3700   1.0000 0.63637  0.63637  0.09091  Biso   1.000  Al
  Al3701   1.0000 0.63637  0.68183  0.13636  Biso   1.000  Al
  Al3702   1.0000 0.68183  0.63637  0.13636  Biso   1.000  Al
  Al3703   1.0000 0.68183  0.68183  0.09090  Biso   1.000  Al
  Al3704   1.0000 0.63637  0.63637  0.18181  Biso   1.000  Al
  Al3705   1.0000 0.63637  0.68183  0.22727  Biso   1.000  Al
  Al3706   1.0000 0.68183  0.63637  0.22727  Biso   1.000  Al
  Al3707   1.0000 0.68183  0.68183  0.18181  Biso   1.000  Al
  Al3708   1.0000 0.63637  0.63637  0.27272  Biso   1.000  Al
  Al3709   1.0000 0.63637  0.68182  0.31818  Biso   1.000  Al
  Al3710   1.0000 0.68182  0.63637  0.31818  Biso   1.000  Al
  Al3711   1.0000 0.68183  0.68183  0.27272  Biso   1.000  Al
  Al3712   1.0000 0.63637  0.63637  0.36363  Biso   1.000  Al
  Al3713   1.0000 0.63637  0.68182  0.40909  Biso   1.000  Al
  Al3714   1.0000 0.68182  0.63637  0.40909  Biso   1.000  Al
  Al3715   1.0000 0.68182  0.68182  0.36363  Biso   1.000  Al
  Al3716   1.0000 0.63637  0.63637  0.45454  Biso   1.000  Al
  Al3717   1.0000 0.63637  0.68182  0.50000  Biso   1.000  Al
  Al3718   1.0000 0.68182  0.63637  0.50000  Biso   1.000  Al
  Al3719   1.0000 0.68182  0.68182  0.45454  Biso   1.000  Al
  Al3720   1.0000 0.63637  0.63637  0.54546  Biso   1.000  Al
  Al3721   1.0000 0.63637  0.68182  0.59091  Biso   1.000  Al
  Al3722   1.0000 0.68182  0.63637  0.59091  Biso   1.000  Al
  Al3723   1.0000 0.68182  0.68182  0.54546  Biso   1.000  Al
  Al3724   1.0000 0.63637  0.63637  0.63637  Biso   1.000  Al
  Al3725   1.0000 0.63637  0.68182  0.68182  Biso   1.000  Al
  Al3726   1.0000 0.68182  0.63637  0.68182  Biso   1.000  Al
  Al3727   1.0000 0.68182  0.68182  0.63637  Biso   1.000  Al
  Al3728   1.0000 0.63637  0.63637  0.72728  Biso   1.000  Al
  Al3729   1.0000 0.63637  0.68183  0.77273  Biso   1.000  Al
  Al3730   1.0000 0.68183  0.63637  0.77273  Biso   1.000  Al
  Al3731   1.0000 0.68183  0.68183  0.72728  Biso   1.000  Al
  Al3732   1.0000 0.63637  0.63637  0.81819  Biso   1.000  Al
  Al3733   1.0000 0.63637  0.68183  0.86364  Biso   1.000  Al
  Al3734   1.0000 0.68183  0.63637  0.86364  Biso   1.000  Al
  Al3735   1.0000 0.68183  0.68183  0.81819  Biso   1.000  Al
  Al3736   1.0000 0.63637  0.63637  0.90909  Biso   1.000  Al
  Al3737   1.0000 0.63637  0.68183  0.95455  Biso   1.000  Al
  Al3738   1.0000 0.68183  0.63637  0.95455  Biso   1.000  Al
  Al3739   1.0000 0.68183  0.68183  0.90910  Biso   1.000  Al
  Al3740   1.0000 0.63638  0.72728  1.00000  Biso   1.000  Al
  Al3741   1.0000 0.63638  0.77274  0.04545  Biso   1.000  Al
  Al3742   1.0000 0.68183  0.72729  0.04545  Biso   1.000  Al
  Al3743   1.0000 0.68184  0.77274  0.00000  Biso   1.000  Al
  Al3744   1.0000 0.63637  0.72728  0.09090  Biso   1.000  Al
  Al3745   1.0000 0.63638  0.77274  0.13636  Biso   1.000  Al
  Al3746   1.0000 0.68183  0.72729  0.13636  Biso   1.000  Al
  Al3747   1.0000 0.68184  0.77274  0.09090  Biso   1.000  Al
  Al3748   1.0000 0.63637  0.72728  0.18181  Biso   1.000  Al
  Al3749   1.0000 0.63637  0.77274  0.22726  Biso   1.000  Al
  Al3750   1.0000 0.68183  0.72728  0.22726  Biso   1.000  Al
  Al3751   1.0000 0.68183  0.77274  0.18181  Biso   1.000  Al
  Al3752   1.0000 0.63637  0.72728  0.27272  Biso   1.000  Al
  Al3753   1.0000 0.63637  0.77273  0.31817  Biso   1.000  Al
  Al3754   1.0000 0.68183  0.72728  0.31817  Biso   1.000  Al
  Al3755   1.0000 0.68183  0.77274  0.27272  Biso   1.000  Al
  Al3756   1.0000 0.63637  0.72728  0.36363  Biso   1.000  Al
  Al3757   1.0000 0.63637  0.77273  0.40909  Biso   1.000  Al
  Al3758   1.0000 0.68182  0.72728  0.40909  Biso   1.000  Al
  Al3759   1.0000 0.68183  0.77273  0.36363  Biso   1.000  Al
  Al3760   1.0000 0.63637  0.72728  0.45454  Biso   1.000  Al
  Al3761   1.0000 0.63637  0.77273  0.50000  Biso   1.000  Al
  Al3762   1.0000 0.68182  0.72728  0.50000  Biso   1.000  Al
  Al3763   1.0000 0.68182  0.77273  0.45454  Biso   1.000  Al
  Al3764   1.0000 0.63637  0.72728  0.54546  Biso   1.000  Al
  Al3765   1.0000 0.63637  0.77273  0.59091  Biso   1.000  Al
  Al3766   1.0000 0.68182  0.72728  0.59091  Biso   1.000  Al
  Al3767   1.0000 0.68182  0.77273  0.54546  Biso   1.000  Al
  Al3768   1.0000 0.63637  0.72728  0.63637  Biso   1.000  Al
  Al3769   1.0000 0.63637  0.77273  0.68183  Biso   1.000  Al
  Al3770   1.0000 0.68183  0.72728  0.68183  Biso   1.000  Al
  Al3771   1.0000 0.68183  0.77273  0.63637  Biso   1.000  Al
  Al3772   1.0000 0.63637  0.72728  0.72728  Biso   1.000  Al
  Al3773   1.0000 0.63637  0.77274  0.77274  Biso   1.000  Al
  Al3774   1.0000 0.68183  0.72728  0.77274  Biso   1.000  Al
  Al3775   1.0000 0.68183  0.77274  0.72728  Biso   1.000  Al
  Al3776   1.0000 0.63637  0.72728  0.81819  Biso   1.000  Al
  Al3777   1.0000 0.63638  0.77274  0.86364  Biso   1.000  Al
  Al3778   1.0000 0.68183  0.72729  0.86364  Biso   1.000  Al
  Al3779   1.0000 0.68183  0.77274  0.81819  Biso   1.000  Al
  Al3780   1.0000 0.63637  0.72728  0.90910  Biso   1.000  Al
  Al3781   1.0000 0.63638  0.77274  0.95455  Biso   1.000  Al
  Al3782   1.0000 0.68183  0.72729  0.95455  Biso   1.000  Al
  Al3783   1.0000 0.68184  0.77274  0.90910  Biso   1.000  Al
  Al3784   1.0000 0.63638  0.81819  1.00000  Biso   1.000  Al
  Al3785   1.0000 0.63638  0.86365  0.04545  Biso   1.000  Al
  Al3786   1.0000 0.68184  0.81820  0.04545  Biso   1.000  Al
  Al3787   1.0000 0.68184  0.86365  1.00000  Biso   1.000  Al
  Al3788   1.0000 0.63638  0.81819  0.09090  Biso   1.000  Al
  Al3789   1.0000 0.63638  0.86365  0.13635  Biso   1.000  Al
  Al3790   1.0000 0.68184  0.81820  0.13635  Biso   1.000  Al
  Al3791   1.0000 0.68184  0.86365  0.09090  Biso   1.000  Al
  Al3792   1.0000 0.63638  0.81819  0.18181  Biso   1.000  Al
  Al3793   1.0000 0.63638  0.86364  0.22726  Biso   1.000  Al
  Al3794   1.0000 0.68183  0.81819  0.22726  Biso   1.000  Al
  Al3795   1.0000 0.68184  0.86365  0.18180  Biso   1.000  Al
  Al3796   1.0000 0.63637  0.81819  0.27272  Biso   1.000  Al
  Al3797   1.0000 0.63637  0.86364  0.31817  Biso   1.000  Al
  Al3798   1.0000 0.68183  0.81819  0.31817  Biso   1.000  Al
  Al3799   1.0000 0.68183  0.86364  0.27271  Biso   1.000  Al
  Al3800   1.0000 0.63637  0.81819  0.36363  Biso   1.000  Al
  Al3801   1.0000 0.63637  0.86364  0.40909  Biso   1.000  Al
  Al3802   1.0000 0.68183  0.81819  0.40909  Biso   1.000  Al
  Al3803   1.0000 0.68183  0.86364  0.36363  Biso   1.000  Al
  Al3804   1.0000 0.63637  0.81819  0.45454  Biso   1.000  Al
  Al3805   1.0000 0.63637  0.86364  0.50000  Biso   1.000  Al
  Al3806   1.0000 0.68182  0.81819  0.50000  Biso   1.000  Al
  Al3807   1.0000 0.68182  0.86364  0.45454  Biso   1.000  Al
  Al3808   1.0000 0.63637  0.81819  0.54546  Biso   1.000  Al
  Al3809   1.0000 0.63637  0.86364  0.59091  Biso   1.000  Al
  Al3810   1.0000 0.68183  0.81819  0.59091  Biso   1.000  Al
  Al3811   1.0000 0.68182  0.86364  0.54546  Biso   1.000  Al
  Al3812   1.0000 0.63637  0.81819  0.63637  Biso   1.000  Al
  Al3813   1.0000 0.63637  0.86364  0.68183  Biso   1.000  Al
  Al3814   1.0000 0.68183  0.81819  0.68183  Biso   1.000  Al
  Al3815   1.0000 0.68183  0.86364  0.63637  Biso   1.000  Al
  Al3816   1.0000 0.63637  0.81819  0.72728  Biso   1.000  Al
  Al3817   1.0000 0.63638  0.86364  0.77274  Biso   1.000  Al
  Al3818   1.0000 0.68183  0.81819  0.77274  Biso   1.000  Al
  Al3819   1.0000 0.68183  0.86364  0.72729  Biso   1.000  Al
  Al3820   1.0000 0.63638  0.81819  0.81819  Biso   1.000  Al
  Al3821   1.0000 0.63638  0.86365  0.86365  Biso   1.000  Al
  Al3822   1.0000 0.68184  0.81820  0.86365  Biso   1.000  Al
  Al3823   1.0000 0.68184  0.86365  0.81820  Biso   1.000  Al
  Al3824   1.0000 0.63638  0.81819  0.90910  Biso   1.000  Al
  Al3825   1.0000 0.63638  0.86365  0.95455  Biso   1.000  Al
  Al3826   1.0000 0.68184  0.81820  0.95455  Biso   1.000  Al
  Al3827   1.0000 0.68184  0.86365  0.90910  Biso   1.000  Al
  Al3828   1.0000 0.63638  0.90910  1.00000  Biso   1.000  Al
  Al3829   1.0000 0.63638  0.95455  0.04545  Biso   1.000  Al
  Al3830   1.0000 0.68185  0.90910  0.04545  Biso   1.000  Al
  Al3831   1.0000 0.68185  0.95455  0.00000  Biso   1.000  Al
  Al3832   1.0000 0.63638  0.90910  0.09090  Biso   1.000  Al
  Al3833   1.0000 0.63638  0.95455  0.13635  Biso   1.000  Al
  Al3834   1.0000 0.68184  0.90910  0.13635  Biso   1.000  Al
  Al3835   1.0000 0.68185  0.95455  0.09090  Biso   1.000  Al
  Al3836   1.0000 0.63638  0.90910  0.18181  Biso   1.000  Al
  Al3837   1.0000 0.63638  0.95455  0.22726  Biso   1.000  Al
  Al3838   1.0000 0.68184  0.90910  0.22726  Biso   1.000  Al
  Al3839   1.0000 0.68184  0.95455  0.18180  Biso   1.000  Al
  Al3840   1.0000 0.63637  0.90910  0.27272  Biso   1.000  Al
  Al3841   1.0000 0.63637  0.95455  0.31817  Biso   1.000  Al
  Al3842   1.0000 0.68183  0.90910  0.31817  Biso   1.000  Al
  Al3843   1.0000 0.68183  0.95455  0.27271  Biso   1.000  Al
  Al3844   1.0000 0.63637  0.90909  0.36363  Biso   1.000  Al
  Al3845   1.0000 0.63637  0.95455  0.40909  Biso   1.000  Al
  Al3846   1.0000 0.68183  0.90909  0.40908  Biso   1.000  Al
  Al3847   1.0000 0.68183  0.95455  0.36363  Biso   1.000  Al
  Al3848   1.0000 0.63637  0.90909  0.45454  Biso   1.000  Al
  Al3849   1.0000 0.63637  0.95455  0.50000  Biso   1.000  Al
  Al3850   1.0000 0.68182  0.90909  0.50000  Biso   1.000  Al
  Al3851   1.0000 0.68183  0.95455  0.45454  Biso   1.000  Al
  Al3852   1.0000 0.63637  0.90909  0.54546  Biso   1.000  Al
  Al3853   1.0000 0.63637  0.95455  0.59091  Biso   1.000  Al
  Al3854   1.0000 0.68183  0.90909  0.59092  Biso   1.000  Al
  Al3855   1.0000 0.68183  0.95455  0.54546  Biso   1.000  Al
  Al3856   1.0000 0.63637  0.90909  0.63637  Biso   1.000  Al
  Al3857   1.0000 0.63637  0.95455  0.68183  Biso   1.000  Al
  Al3858   1.0000 0.68183  0.90910  0.68183  Biso   1.000  Al
  Al3859   1.0000 0.68183  0.95455  0.63637  Biso   1.000  Al
  Al3860   1.0000 0.63637  0.90910  0.72728  Biso   1.000  Al
  Al3861   1.0000 0.63638  0.95455  0.77274  Biso   1.000  Al
  Al3862   1.0000 0.68184  0.90910  0.77274  Biso   1.000  Al
  Al3863   1.0000 0.68183  0.95455  0.72729  Biso   1.000  Al
  Al3864   1.0000 0.63638  0.90910  0.81819  Biso   1.000  Al
  Al3865   1.0000 0.63638  0.95455  0.86365  Biso   1.000  Al
  Al3866   1.0000 0.68184  0.90910  0.86365  Biso   1.000  Al
  Al3867   1.0000 0.68184  0.95455  0.81820  Biso   1.000  Al
  Al3868   1.0000 0.63638  0.90910  0.90910  Biso   1.000  Al
  Al3869   1.0000 0.63638  0.95455  0.95455  Biso   1.000  Al
  Al3870   1.0000 0.68185  0.90910  0.95455  Biso   1.000  Al
  Al3871   1.0000 0.68185  0.95455  0.90910  Biso   1.000  Al
  Al3872   1.0000 0.72732  0.00000  1.00000  Biso   1.000  Al
  Al3873   1.0000 0.72732  0.04545  0.04545  Biso   1.000  Al
  Al3874   1.0000 0.77279  0.00000  0.04544  Biso   1.000  Al
  Al3875   1.0000 0.77279  0.04544  1.00000  Biso   1.000  Al
  Al3876   1.0000 0.72731  1.00000  0.09089  Biso   1.000  Al
  Al3877   1.0000 0.72731  0.04545  0.13634  Biso   1.000  Al
  Al3878   1.0000 0.77278  0.00000  0.13633  Biso   1.000  Al
  Al3879   1.0000 0.77279  0.04544  0.09088  Biso   1.000  Al
  Al3880   1.0000 0.72731  1.00000  0.18179  Biso   1.000  Al
  Al3881   1.0000 0.72730  0.04545  0.22725  Biso   1.000  Al
  Al3882   1.0000 0.77276  0.00000  0.22724  Biso   1.000  Al
  Al3883   1.0000 0.77277  0.04544  0.18178  Biso   1.000  Al
  Al3884   1.0000 0.72729  1.00000  0.27271  Biso   1.000  Al
  Al3885   1.0000 0.72729  0.04545  0.31817  Biso   1.000  Al
  Al3886   1.0000 0.77274  1.00000  0.31816  Biso   1.000  Al
  Al3887   1.0000 0.77275  0.04545  0.27270  Biso   1.000  Al
  Al3888   1.0000 0.72728  1.00000  0.36362  Biso   1.000  Al
  Al3889   1.0000 0.72728  0.04545  0.40908  Biso   1.000  Al
  Al3890   1.0000 0.77274  1.00000  0.40908  Biso   1.000  Al
  Al3891   1.0000 0.77274  0.04545  0.36362  Biso   1.000  Al
  Al3892   1.0000 0.72728  1.00000  0.45454  Biso   1.000  Al
  Al3893   1.0000 0.72728  0.04545  0.50000  Biso   1.000  Al
  Al3894   1.0000 0.77273  0.00000  0.50000  Biso   1.000  Al
  Al3895   1.0000 0.77273  0.04545  0.45454  Biso   1.000  Al
  Al3896   1.0000 0.72728  1.00000  0.54546  Biso   1.000  Al
  Al3897   1.0000 0.72728  0.04545  0.59092  Biso   1.000  Al
  Al3898   1.0000 0.77274  0.00000  0.59092  Biso   1.000  Al
  Al3899   1.0000 0.77273  0.04545  0.54546  Biso   1.000  Al
  Al3900   1.0000 0.72728  1.00000  0.63638  Biso   1.000  Al
  Al3901   1.0000 0.72729  0.04545  0.68183  Biso   1.000  Al
  Al3902   1.0000 0.77274  0.00000  0.68184  Biso   1.000  Al
  Al3903   1.0000 0.77274  0.04545  0.63638  Biso   1.000  Al
  Al3904   1.0000 0.72729  0.00000  0.72729  Biso   1.000  Al
  Al3905   1.0000 0.72730  0.04545  0.77275  Biso   1.000  Al
  Al3906   1.0000 0.77276  0.00000  0.77276  Biso   1.000  Al
  Al3907   1.0000 0.77275  0.04545  0.72730  Biso   1.000  Al
  Al3908   1.0000 0.72731  0.00000  0.81821  Biso   1.000  Al
  Al3909   1.0000 0.72731  0.04545  0.86366  Biso   1.000  Al
  Al3910   1.0000 0.77278  1.00000  0.86367  Biso   1.000  Al
  Al3911   1.0000 0.77277  0.04544  0.81822  Biso   1.000  Al
  Al3912   1.0000 0.72731  1.00000  0.90911  Biso   1.000  Al
  Al3913   1.0000 0.72732  0.04545  0.95455  Biso   1.000  Al
  Al3914   1.0000 0.77279  1.00000  0.95456  Biso   1.000  Al
  Al3915   1.0000 0.77279  0.04544  0.90912  Biso   1.000  Al
  Al3916   1.0000 0.72731  0.09089  0.00000  Biso   1.000  Al
  Al3917   1.0000 0.72731  0.13634  0.04545  Biso   1.000  Al
  Al3918   1.0000 0.77279  0.09088  0.04544  Biso   1.000  Al
  Al3919   1.0000 0.77278  0.13633  1.00000  Biso   1.000  Al
  Al3920   1.0000 0.72731  0.09089  0.09089  Biso   1.000  Al
  Al3921   1.0000 0.72730  0.13635  0.13635  Biso   1.000  Al
  Al3922   1.0000 0.77277  0.09089  0.13633  Biso   1.000  Al
  Al3923   1.0000 0.77277  0.13633  0.09089  Biso   1.000  Al
  Al3924   1.0000 0.72730  0.09090  0.18180  Biso   1.000  Al
  Al3925   1.0000 0.72729  0.13635  0.22725  Biso   1.000  Al
  Al3926   1.0000 0.77276  0.09090  0.22724  Biso   1.000  Al
  Al3927   1.0000 0.77276  0.13634  0.18179  Biso   1.000  Al
  Al3928   1.0000 0.72729  0.09090  0.27271  Biso   1.000  Al
  Al3929   1.0000 0.72729  0.13636  0.31817  Biso   1.000  Al
  Al3930   1.0000 0.77274  0.09090  0.31816  Biso   1.000  Al
  Al3931   1.0000 0.77275  0.13635  0.27271  Biso   1.000  Al
  Al3932   1.0000 0.72728  0.09090  0.36363  Biso   1.000  Al
  Al3933   1.0000 0.72728  0.13636  0.40908  Biso   1.000  Al
  Al3934   1.0000 0.77274  0.09091  0.40908  Biso   1.000  Al
  Al3935   1.0000 0.77274  0.13636  0.36362  Biso   1.000  Al
  Al3936   1.0000 0.72728  0.09091  0.45454  Biso   1.000  Al
  Al3937   1.0000 0.72728  0.13636  0.50000  Biso   1.000  Al
  Al3938   1.0000 0.77273  0.09091  0.50000  Biso   1.000  Al
  Al3939   1.0000 0.77273  0.13636  0.45454  Biso   1.000  Al
  Al3940   1.0000 0.72728  0.09091  0.54546  Biso   1.000  Al
  Al3941   1.0000 0.72728  0.13636  0.59092  Biso   1.000  Al
  Al3942   1.0000 0.77274  0.09091  0.59092  Biso   1.000  Al
  Al3943   1.0000 0.77273  0.13636  0.54546  Biso   1.000  Al
  Al3944   1.0000 0.72728  0.09090  0.63637  Biso   1.000  Al
  Al3945   1.0000 0.72729  0.13636  0.68183  Biso   1.000  Al
  Al3946   1.0000 0.77274  0.09090  0.68184  Biso   1.000  Al
  Al3947   1.0000 0.77274  0.13636  0.63638  Biso   1.000  Al
  Al3948   1.0000 0.72729  0.09090  0.72729  Biso   1.000  Al
  Al3949   1.0000 0.72729  0.13635  0.77275  Biso   1.000  Al
  Al3950   1.0000 0.77276  0.09090  0.77276  Biso   1.000  Al
  Al3951   1.0000 0.77275  0.13635  0.72729  Biso   1.000  Al
  Al3952   1.0000 0.72730  0.09090  0.81820  Biso   1.000  Al
  Al3953   1.0000 0.72730  0.13635  0.86365  Biso   1.000  Al
  Al3954   1.0000 0.77277  0.09089  0.86367  Biso   1.000  Al
  Al3955   1.0000 0.77276  0.13634  0.81821  Biso   1.000  Al
  Al3956   1.0000 0.72731  0.09089  0.90911  Biso   1.000  Al
  Al3957   1.0000 0.72731  0.13634  0.95455  Biso   1.000  Al
  Al3958   1.0000 0.77279  0.09088  0.95456  Biso   1.000  Al
  Al3959   1.0000 0.77277  0.13633  0.90911  Biso   1.000  Al
  Al3960   1.0000 0.72731  0.18179  0.00000  Biso   1.000  Al
  Al3961   1.0000 0.72730  0.22725  0.04545  Biso   1.000  Al
  Al3962   1.0000 0.77277  0.18178  0.04544  Biso   1.000  Al
  Al3963   1.0000 0.77276  0.22724  1.00000  Biso   1.000  Al
  Al3964   1.0000 0.72730  0.18180  0.09090  Biso   1.000  Al
  Al3965   1.0000 0.72729  0.22725  0.13635  Biso   1.000  Al
  Al3966   1.0000 0.77276  0.18179  0.13634  Biso   1.000  Al
  Al3967   1.0000 0.77276  0.22724  0.09090  Biso   1.000  Al
  Al3968   1.0000 0.72729  0.18180  0.18180  Biso   1.000  Al
  Al3969   1.0000 0.72729  0.22726  0.22726  Biso   1.000  Al
  Al3970   1.0000 0.77275  0.18180  0.22725  Biso   1.000  Al
  Al3971   1.0000 0.77275  0.22725  0.18180  Biso   1.000  Al
  Al3972   1.0000 0.72729  0.18181  0.27271  Biso   1.000  Al
  Al3973   1.0000 0.72728  0.22726  0.31817  Biso   1.000  Al
  Al3974   1.0000 0.77274  0.18181  0.31817  Biso   1.000  Al
  Al3975   1.0000 0.77274  0.22726  0.27271  Biso   1.000  Al
  Al3976   1.0000 0.72728  0.18181  0.36363  Biso   1.000  Al
  Al3977   1.0000 0.72728  0.22727  0.40909  Biso   1.000  Al
  Al3978   1.0000 0.77273  0.18181  0.40908  Biso   1.000  Al
  Al3979   1.0000 0.77274  0.22726  0.36363  Biso   1.000  Al
  Al3980   1.0000 0.72728  0.18181  0.45454  Biso   1.000  Al
  Al3981   1.0000 0.72728  0.22727  0.50000  Biso   1.000  Al
  Al3982   1.0000 0.77273  0.18181  0.50000  Biso   1.000  Al
  Al3983   1.0000 0.77273  0.22727  0.45454  Biso   1.000  Al
  Al3984   1.0000 0.72728  0.18181  0.54546  Biso   1.000  Al
  Al3985   1.0000 0.72728  0.22727  0.59091  Biso   1.000  Al
  Al3986   1.0000 0.77273  0.18181  0.59092  Biso   1.000  Al
  Al3987   1.0000 0.77273  0.22727  0.54546  Biso   1.000  Al
  Al3988   1.0000 0.72728  0.18181  0.63637  Biso   1.000  Al
  Al3989   1.0000 0.72728  0.22726  0.68183  Biso   1.000  Al
  Al3990   1.0000 0.77274  0.18181  0.68183  Biso   1.000  Al
  Al3991   1.0000 0.77274  0.22726  0.63637  Biso   1.000  Al
  Al3992   1.0000 0.72729  0.18181  0.72729  Biso   1.000  Al
  Al3993   1.0000 0.72729  0.22726  0.77274  Biso   1.000  Al
  Al3994   1.0000 0.77275  0.18180  0.77275  Biso   1.000  Al
  Al3995   1.0000 0.77274  0.22726  0.72729  Biso   1.000  Al
  Al3996   1.0000 0.72729  0.18180  0.81820  Biso   1.000  Al
  Al3997   1.0000 0.72729  0.22725  0.86365  Biso   1.000  Al
  Al3998   1.0000 0.77276  0.18179  0.86366  Biso   1.000  Al
  Al3999   1.0000 0.77275  0.22725  0.81820  Biso   1.000  Al
  Al4000   1.0000 0.72730  0.18180  0.90910  Biso   1.000  Al
  Al4001   1.0000 0.72730  0.22725  0.95455  Biso   1.000  Al
  Al4002   1.0000 0.77277  0.18178  0.95456  Biso   1.000  Al
  Al4003   1.0000 0.77276  0.22724  0.90910  Biso   1.000  Al
  Al4004   1.0000 0.72729  0.27271  1.00000  Biso   1.000  Al
  Al4005   1.0000 0.72729  0.31817  0.04545  Biso   1.000  Al
  Al4006   1.0000 0.77275  0.27270  0.04545  Biso   1.000  Al
  Al4007   1.0000 0.77274  0.31816  1.00000  Biso   1.000  Al
  Al4008   1.0000 0.72729  0.27271  0.09090  Biso   1.000  Al
  Al4009   1.0000 0.72729  0.31817  0.13636  Biso   1.000  Al
  Al4010   1.0000 0.77275  0.27271  0.13635  Biso   1.000  Al
  Al4011   1.0000 0.77274  0.31816  0.09090  Biso   1.000  Al
  Al4012   1.0000 0.72729  0.27271  0.18181  Biso   1.000  Al
  Al4013   1.0000 0.72728  0.31817  0.22726  Biso   1.000  Al
  Al4014   1.0000 0.77274  0.27271  0.22726  Biso   1.000  Al
  Al4015   1.0000 0.77274  0.31817  0.18181  Biso   1.000  Al
  Al4016   1.0000 0.72728  0.27272  0.27272  Biso   1.000  Al
  Al4017   1.0000 0.72728  0.31817  0.31817  Biso   1.000  Al
  Al4018   1.0000 0.77274  0.27272  0.31817  Biso   1.000  Al
  Al4019   1.0000 0.77274  0.31817  0.27272  Biso   1.000  Al
  Al4020   1.0000 0.72728  0.27272  0.36363  Biso   1.000  Al
  Al4021   1.0000 0.72728  0.31818  0.40909  Biso   1.000  Al
  Al4022   1.0000 0.77273  0.27272  0.40909  Biso   1.000  Al
  Al4023   1.0000 0.77273  0.31817  0.36363  Biso   1.000  Al
  Al4024   1.0000 0.72728  0.27272  0.45454  Biso   1.000  Al
  Al4025   1.0000 0.72728  0.31818  0.50000  Biso   1.000  Al
  Al4026   1.0000 0.77273  0.27272  0.50000  Biso   1.000  Al
  Al4027   1.0000 0.77273  0.31818  0.45454  Biso   1.000  Al
  Al4028   1.0000 0.72728  0.27272  0.54546  Biso   1.000  Al
  Al4029   1.0000 0.72728  0.31818  0.59091  Biso   1.000  Al
  Al4030   1.0000 0.77273  0.27272  0.59091  Biso   1.000  Al
  Al4031   1.0000 0.77273  0.31818  0.54546  Biso   1.000  Al
  Al4032   1.0000 0.72728  0.27272  0.63637  Biso   1.000  Al
  Al4033   1.0000 0.72728  0.31817  0.68183  Biso   1.000  Al
  Al4034   1.0000 0.77274  0.27272  0.68183  Biso   1.000  Al
  Al4035   1.0000 0.77273  0.31817  0.63637  Biso   1.000  Al
  Al4036   1.0000 0.72728  0.27272  0.72728  Biso   1.000  Al
  Al4037   1.0000 0.72728  0.31817  0.77274  Biso   1.000  Al
  Al4038   1.0000 0.77274  0.27271  0.77274  Biso   1.000  Al
  Al4039   1.0000 0.77274  0.31817  0.72728  Biso   1.000  Al
  Al4040   1.0000 0.72729  0.27271  0.81819  Biso   1.000  Al
  Al4041   1.0000 0.72729  0.31817  0.86364  Biso   1.000  Al
  Al4042   1.0000 0.77275  0.27271  0.86365  Biso   1.000  Al
  Al4043   1.0000 0.77274  0.31817  0.81819  Biso   1.000  Al
  Al4044   1.0000 0.72729  0.27271  0.90910  Biso   1.000  Al
  Al4045   1.0000 0.72729  0.31817  0.95455  Biso   1.000  Al
  Al4046   1.0000 0.77275  0.27270  0.95455  Biso   1.000  Al
  Al4047   1.0000 0.77274  0.31816  0.90910  Biso   1.000  Al
  Al4048   1.0000 0.72728  0.36362  1.00000  Biso   1.000  Al
  Al4049   1.0000 0.72728  0.40908  0.04545  Biso   1.000  Al
  Al4050   1.0000 0.77274  0.36362  0.04545  Biso   1.000  Al
  Al4051   1.0000 0.77274  0.40908  0.00000  Biso   1.000  Al
  Al4052   1.0000 0.72728  0.36363  0.09090  Biso   1.000  Al
  Al4053   1.0000 0.72728  0.40908  0.13636  Biso   1.000  Al
  Al4054   1.0000 0.77274  0.36362  0.13636  Biso   1.000  Al
  Al4055   1.0000 0.77274  0.40908  0.09091  Biso   1.000  Al
  Al4056   1.0000 0.72728  0.36363  0.18181  Biso   1.000  Al
  Al4057   1.0000 0.72728  0.40909  0.22727  Biso   1.000  Al
  Al4058   1.0000 0.77274  0.36363  0.22726  Biso   1.000  Al
  Al4059   1.0000 0.77273  0.40908  0.18181  Biso   1.000  Al
  Al4060   1.0000 0.72728  0.36363  0.27272  Biso   1.000  Al
  Al4061   1.0000 0.72728  0.40909  0.31818  Biso   1.000  Al
  Al4062   1.0000 0.77273  0.36363  0.31817  Biso   1.000  Al
  Al4063   1.0000 0.77273  0.40909  0.27272  Biso   1.000  Al
  Al4064   1.0000 0.72728  0.36363  0.36363  Biso   1.000  Al
  Al4065   1.0000 0.72728  0.40909  0.40909  Biso   1.000  Al
  Al4066   1.0000 0.77273  0.36363  0.40909  Biso   1.000  Al
  Al4067   1.0000 0.77273  0.40909  0.36363  Biso   1.000  Al
  Al4068   1.0000 0.72728  0.36363  0.45454  Biso   1.000  Al
  Al4069   1.0000 0.72728  0.40909  0.50000  Biso   1.000  Al
  Al4070   1.0000 0.77273  0.36363  0.50000  Biso   1.000  Al
  Al4071   1.0000 0.77273  0.40909  0.45454  Biso   1.000  Al
  Al4072   1.0000 0.72728  0.36363  0.54546  Biso   1.000  Al
  Al4073   1.0000 0.72728  0.40909  0.59091  Biso   1.000  Al
  Al4074   1.0000 0.77273  0.36363  0.59091  Biso   1.000  Al
  Al4075   1.0000 0.77273  0.40909  0.54546  Biso   1.000  Al
  Al4076   1.0000 0.72728  0.36363  0.63637  Biso   1.000  Al
  Al4077   1.0000 0.72728  0.40909  0.68182  Biso   1.000  Al
  Al4078   1.0000 0.77273  0.36363  0.68183  Biso   1.000  Al
  Al4079   1.0000 0.77273  0.40909  0.63637  Biso   1.000  Al
  Al4080   1.0000 0.72728  0.36363  0.72728  Biso   1.000  Al
  Al4081   1.0000 0.72728  0.40909  0.77273  Biso   1.000  Al
  Al4082   1.0000 0.77274  0.36363  0.77274  Biso   1.000  Al
  Al4083   1.0000 0.77273  0.40909  0.72728  Biso   1.000  Al
  Al4084   1.0000 0.72728  0.36363  0.81819  Biso   1.000  Al
  Al4085   1.0000 0.72728  0.40908  0.86364  Biso   1.000  Al
  Al4086   1.0000 0.77274  0.36362  0.86364  Biso   1.000  Al
  Al4087   1.0000 0.77273  0.40908  0.81819  Biso   1.000  Al
  Al4088   1.0000 0.72728  0.36363  0.90910  Biso   1.000  Al
  Al4089   1.0000 0.72728  0.40908  0.95455  Biso   1.000  Al
  Al4090   1.0000 0.77274  0.36362  0.95455  Biso   1.000  Al
  Al4091   1.0000 0.77274  0.40908  0.90909  Biso   1.000  Al
  Al4092   1.0000 0.72728  0.45454  1.00000  Biso   1.000  Al
  Al4093   1.0000 0.72728  0.50000  0.04545  Biso   1.000  Al
  Al4094   1.0000 0.77273  0.45454  0.04545  Biso   1.000  Al
  Al4095   1.0000 0.77273  0.50000  0.00000  Biso   1.000  Al
  Al4096   1.0000 0.72728  0.45454  0.09091  Biso   1.000  Al
  Al4097   1.0000 0.72728  0.50000  0.13636  Biso   1.000  Al
  Al4098   1.0000 0.77273  0.45454  0.13636  Biso   1.000  Al
  Al4099   1.0000 0.77273  0.50000  0.09091  Biso   1.000  Al
  Al4100   1.0000 0.72728  0.45454  0.18181  Biso   1.000  Al
  Al4101   1.0000 0.72728  0.50000  0.22727  Biso   1.000  Al
  Al4102   1.0000 0.77273  0.45454  0.22727  Biso   1.000  Al
  Al4103   1.0000 0.77273  0.50000  0.18181  Biso   1.000  Al
  Al4104   1.0000 0.72728  0.45454  0.27272  Biso   1.000  Al
  Al4105   1.0000 0.72728  0.50000  0.31818  Biso   1.000  Al
  Al4106   1.0000 0.77273  0.45454  0.31818  Biso   1.000  Al
  Al4107   1.0000 0.77273  0.50000  0.27272  Biso   1.000  Al
  Al4108   1.0000 0.72728  0.45454  0.36363  Biso   1.000  Al
  Al4109   1.0000 0.72728  0.50000  0.40909  Biso   1.000  Al
  Al4110   1.0000 0.77273  0.45454  0.40909  Biso   1.000  Al
  Al4111   1.0000 0.77273  0.50000  0.36363  Biso   1.000  Al
  Al4112   1.0000 0.72728  0.45454  0.45454  Biso   1.000  Al
  Al4113   1.0000 0.72728  0.50000  0.50000  Biso   1.000  Al
  Al4114   1.0000 0.77273  0.45454  0.50000  Biso   1.000  Al
  Al4115   1.0000 0.77273  0.50000  0.45454  Biso   1.000  Al
  Al4116   1.0000 0.72728  0.45454  0.54546  Biso   1.000  Al
  Al4117   1.0000 0.72728  0.50000  0.59091  Biso   1.000  Al
  Al4118   1.0000 0.77273  0.45454  0.59091  Biso   1.000  Al
  Al4119   1.0000 0.77273  0.50000  0.54546  Biso   1.000  Al
  Al4120   1.0000 0.72728  0.45454  0.63637  Biso   1.000  Al
  Al4121   1.0000 0.72728  0.50000  0.68182  Biso   1.000  Al
  Al4122   1.0000 0.77273  0.45454  0.68182  Biso   1.000  Al
  Al4123   1.0000 0.77273  0.50000  0.63637  Biso   1.000  Al
  Al4124   1.0000 0.72728  0.45454  0.72728  Biso   1.000  Al
  Al4125   1.0000 0.72728  0.50000  0.77273  Biso   1.000  Al
  Al4126   1.0000 0.77273  0.45454  0.77273  Biso   1.000  Al
  Al4127   1.0000 0.77273  0.50000  0.72728  Biso   1.000  Al
  Al4128   1.0000 0.72728  0.45454  0.81819  Biso   1.000  Al
  Al4129   1.0000 0.72728  0.50000  0.86364  Biso   1.000  Al
  Al4130   1.0000 0.77273  0.45454  0.86364  Biso   1.000  Al
  Al4131   1.0000 0.77273  0.50000  0.81819  Biso   1.000  Al
  Al4132   1.0000 0.72728  0.45454  0.90909  Biso   1.000  Al
  Al4133   1.0000 0.72728  0.50000  0.95455  Biso   1.000  Al
  Al4134   1.0000 0.77273  0.45454  0.95455  Biso   1.000  Al
  Al4135   1.0000 0.77273  0.50000  0.90909  Biso   1.000  Al
  Al4136   1.0000 0.72728  0.54546  0.00000  Biso   1.000  Al
  Al4137   1.0000 0.72728  0.59092  0.04545  Biso   1.000  Al
  Al4138   1.0000 0.77273  0.54546  0.04545  Biso   1.000  Al
  Al4139   1.0000 0.77274  0.59092  1.00000  Biso   1.000  Al
  Al4140   1.0000 0.72728  0.54546  0.09091  Biso   1.000  Al
  Al4141   1.0000 0.72728  0.59092  0.13636  Biso   1.000  Al
  Al4142   1.0000 0.77273  0.54546  0.13636  Biso   1.000  Al
  Al4143   1.0000 0.77274  0.59092  0.09091  Biso   1.000  Al
  Al4144   1.0000 0.72728  0.54546  0.18181  Biso   1.000  Al
  Al4145   1.0000 0.72728  0.59091  0.22727  Biso   1.000  Al
  Al4146   1.0000 0.77273  0.54546  0.22727  Biso   1.000  Al
  Al4147   1.0000 0.77273  0.59092  0.18181  Biso   1.000  Al
  Al4148   1.0000 0.72728  0.54546  0.27272  Biso   1.000  Al
  Al4149   1.0000 0.72728  0.59091  0.31818  Biso   1.000  Al
  Al4150   1.0000 0.77273  0.54546  0.31818  Biso   1.000  Al
  Al4151   1.0000 0.77273  0.59091  0.27272  Biso   1.000  Al
  Al4152   1.0000 0.72728  0.54546  0.36363  Biso   1.000  Al
  Al4153   1.0000 0.72728  0.59091  0.40909  Biso   1.000  Al
  Al4154   1.0000 0.77273  0.54546  0.40909  Biso   1.000  Al
  Al4155   1.0000 0.77273  0.59091  0.36363  Biso   1.000  Al
  Al4156   1.0000 0.72728  0.54546  0.45454  Biso   1.000  Al
  Al4157   1.0000 0.72728  0.59091  0.50000  Biso   1.000  Al
  Al4158   1.0000 0.77273  0.54546  0.50000  Biso   1.000  Al
  Al4159   1.0000 0.77273  0.59091  0.45454  Biso   1.000  Al
  Al4160   1.0000 0.72728  0.54546  0.54546  Biso   1.000  Al
  Al4161   1.0000 0.72728  0.59091  0.59091  Biso   1.000  Al
  Al4162   1.0000 0.77273  0.54546  0.59091  Biso   1.000  Al
  Al4163   1.0000 0.77273  0.59091  0.54546  Biso   1.000  Al
  Al4164   1.0000 0.72728  0.54546  0.63637  Biso   1.000  Al
  Al4165   1.0000 0.72728  0.59091  0.68182  Biso   1.000  Al
  Al4166   1.0000 0.77273  0.54546  0.68182  Biso   1.000  Al
  Al4167   1.0000 0.77273  0.59091  0.63637  Biso   1.000  Al
  Al4168   1.0000 0.72728  0.54546  0.72728  Biso   1.000  Al
  Al4169   1.0000 0.72728  0.59091  0.77273  Biso   1.000  Al
  Al4170   1.0000 0.77273  0.54546  0.77273  Biso   1.000  Al
  Al4171   1.0000 0.77273  0.59091  0.72728  Biso   1.000  Al
  Al4172   1.0000 0.72728  0.54546  0.81819  Biso   1.000  Al
  Al4173   1.0000 0.72728  0.59092  0.86364  Biso   1.000  Al
  Al4174   1.0000 0.77273  0.54546  0.86364  Biso   1.000  Al
  Al4175   1.0000 0.77273  0.59092  0.81819  Biso   1.000  Al
  Al4176   1.0000 0.72728  0.54546  0.90909  Biso   1.000  Al
  Al4177   1.0000 0.72728  0.59092  0.95455  Biso   1.000  Al
  Al4178   1.0000 0.77273  0.54546  0.95455  Biso   1.000  Al
  Al4179   1.0000 0.77274  0.59092  0.90909  Biso   1.000  Al
  Al4180   1.0000 0.72728  0.63638  0.00000  Biso   1.000  Al
  Al4181   1.0000 0.72729  0.68183  0.04545  Biso   1.000  Al
  Al4182   1.0000 0.77274  0.63638  0.04545  Biso   1.000  Al
  Al4183   1.0000 0.77274  0.68184  0.00000  Biso   1.000  Al
  Al4184   1.0000 0.72728  0.63637  0.09090  Biso   1.000  Al
  Al4185   1.0000 0.72729  0.68183  0.13636  Biso   1.000  Al
  Al4186   1.0000 0.77274  0.63638  0.13636  Biso   1.000  Al
  Al4187   1.0000 0.77274  0.68184  0.09090  Biso   1.000  Al
  Al4188   1.0000 0.72728  0.63637  0.18181  Biso   1.000  Al
  Al4189   1.0000 0.72728  0.68183  0.22726  Biso   1.000  Al
  Al4190   1.0000 0.77274  0.63637  0.22726  Biso   1.000  Al
  Al4191   1.0000 0.77274  0.68183  0.18181  Biso   1.000  Al
  Al4192   1.0000 0.72728  0.63637  0.27272  Biso   1.000  Al
  Al4193   1.0000 0.72728  0.68183  0.31817  Biso   1.000  Al
  Al4194   1.0000 0.77273  0.63637  0.31817  Biso   1.000  Al
  Al4195   1.0000 0.77274  0.68183  0.27272  Biso   1.000  Al
  Al4196   1.0000 0.72728  0.63637  0.36363  Biso   1.000  Al
  Al4197   1.0000 0.72728  0.68182  0.40909  Biso   1.000  Al
  Al4198   1.0000 0.77273  0.63637  0.40909  Biso   1.000  Al
  Al4199   1.0000 0.77273  0.68183  0.36363  Biso   1.000  Al
  Al4200   1.0000 0.72728  0.63637  0.45454  Biso   1.000  Al
  Al4201   1.0000 0.72728  0.68182  0.50000  Biso   1.000  Al
  Al4202   1.0000 0.77273  0.63637  0.50000  Biso   1.000  Al
  Al4203   1.0000 0.77273  0.68182  0.45454  Biso   1.000  Al
  Al4204   1.0000 0.72728  0.63637  0.54546  Biso   1.000  Al
  Al4205   1.0000 0.72728  0.68182  0.59091  Biso   1.000  Al
  Al4206   1.0000 0.77273  0.63637  0.59091  Biso   1.000  Al
  Al4207   1.0000 0.77273  0.68182  0.54546  Biso   1.000  Al
  Al4208   1.0000 0.72728  0.63637  0.63637  Biso   1.000  Al
  Al4209   1.0000 0.72728  0.68183  0.68183  Biso   1.000  Al
  Al4210   1.0000 0.77273  0.63637  0.68183  Biso   1.000  Al
  Al4211   1.0000 0.77273  0.68183  0.63637  Biso   1.000  Al
  Al4212   1.0000 0.72728  0.63637  0.72728  Biso   1.000  Al
  Al4213   1.0000 0.72728  0.68183  0.77274  Biso   1.000  Al
  Al4214   1.0000 0.77274  0.63637  0.77274  Biso   1.000  Al
  Al4215   1.0000 0.77274  0.68183  0.72728  Biso   1.000  Al
  Al4216   1.0000 0.72728  0.63637  0.81819  Biso   1.000  Al
  Al4217   1.0000 0.72729  0.68183  0.86364  Biso   1.000  Al
  Al4218   1.0000 0.77274  0.63638  0.86364  Biso   1.000  Al
  Al4219   1.0000 0.77274  0.68183  0.81819  Biso   1.000  Al
  Al4220   1.0000 0.72728  0.63637  0.90910  Biso   1.000  Al
  Al4221   1.0000 0.72729  0.68183  0.95455  Biso   1.000  Al
  Al4222   1.0000 0.77274  0.63638  0.95455  Biso   1.000  Al
  Al4223   1.0000 0.77274  0.68184  0.90910  Biso   1.000  Al
  Al4224   1.0000 0.72729  0.72729  0.00000  Biso   1.000  Al
  Al4225   1.0000 0.72730  0.77275  0.04545  Biso   1.000  Al
  Al4226   1.0000 0.77275  0.72730  0.04545  Biso   1.000  Al
  Al4227   1.0000 0.77276  0.77276  0.00000  Biso   1.000  Al
  Al4228   1.0000 0.72729  0.72729  0.09090  Biso   1.000  Al
  Al4229   1.0000 0.72729  0.77275  0.13635  Biso   1.000  Al
  Al4230   1.0000 0.77275  0.72729  0.13635  Biso   1.000  Al
  Al4231   1.0000 0.77276  0.77276  0.09090  Biso   1.000  Al
  Al4232   1.0000 0.72729  0.72729  0.18181  Biso   1.000  Al
  Al4233   1.0000 0.72729  0.77274  0.22726  Biso   1.000  Al
  Al4234   1.0000 0.77274  0.72729  0.22726  Biso   1.000  Al
  Al4235   1.0000 0.77275  0.77275  0.18180  Biso   1.000  Al
  Al4236   1.0000 0.72728  0.72728  0.27272  Biso   1.000  Al
  Al4237   1.0000 0.72728  0.77274  0.31817  Biso   1.000  Al
  Al4238   1.0000 0.77274  0.72728  0.31817  Biso   1.000  Al
  Al4239   1.0000 0.77274  0.77274  0.27271  Biso   1.000  Al
  Al4240   1.0000 0.72728  0.72728  0.36363  Biso   1.000  Al
  Al4241   1.0000 0.72728  0.77273  0.40909  Biso   1.000  Al
  Al4242   1.0000 0.77273  0.72728  0.40909  Biso   1.000  Al
  Al4243   1.0000 0.77274  0.77274  0.36363  Biso   1.000  Al
  Al4244   1.0000 0.72728  0.72728  0.45454  Biso   1.000  Al
  Al4245   1.0000 0.72728  0.77273  0.50000  Biso   1.000  Al
  Al4246   1.0000 0.77273  0.72728  0.50000  Biso   1.000  Al
  Al4247   1.0000 0.77273  0.77273  0.45454  Biso   1.000  Al
  Al4248   1.0000 0.72728  0.72728  0.54546  Biso   1.000  Al
  Al4249   1.0000 0.72728  0.77273  0.59091  Biso   1.000  Al
  Al4250   1.0000 0.77273  0.72728  0.59091  Biso   1.000  Al
  Al4251   1.0000 0.77273  0.77273  0.54546  Biso   1.000  Al
  Al4252   1.0000 0.72728  0.72728  0.63637  Biso   1.000  Al
  Al4253   1.0000 0.72728  0.77274  0.68183  Biso   1.000  Al
  Al4254   1.0000 0.77274  0.72728  0.68183  Biso   1.000  Al
  Al4255   1.0000 0.77274  0.77274  0.63637  Biso   1.000  Al
  Al4256   1.0000 0.72728  0.72728  0.72728  Biso   1.000  Al
  Al4257   1.0000 0.72729  0.77274  0.77274  Biso   1.000  Al
  Al4258   1.0000 0.77274  0.72729  0.77274  Biso   1.000  Al
  Al4259   1.0000 0.77274  0.77274  0.72729  Biso   1.000  Al
  Al4260   1.0000 0.72729  0.72729  0.81819  Biso   1.000  Al
  Al4261   1.0000 0.72729  0.77275  0.86365  Biso   1.000  Al
  Al4262   1.0000 0.77275  0.72729  0.86365  Biso   1.000  Al
  Al4263   1.0000 0.77275  0.77275  0.81820  Biso   1.000  Al
  Al4264   1.0000 0.72729  0.72729  0.90910  Biso   1.000  Al
  Al4265   1.0000 0.72730  0.77275  0.95455  Biso   1.000  Al
  Al4266   1.0000 0.77275  0.72730  0.95455  Biso   1.000  Al
  Al4267   1.0000 0.77276  0.77276  0.90910  Biso   1.000  Al
  Al4268   1.0000 0.72731  0.81821  0.00000  Biso   1.000  Al
  Al4269   1.0000 0.72731  0.86366  0.04545  Biso   1.000  Al
  Al4270   1.0000 0.77277  0.81822  0.04544  Biso   1.000  Al
  Al4271   1.0000 0.77278  0.86367  0.00000  Biso   1.000  Al
  Al4272   1.0000 0.72730  0.81820  0.09090  Biso   1.000  Al
  Al4273   1.0000 0.72730  0.86365  0.13635  Biso   1.000  Al
  Al4274   1.0000 0.77276  0.81821  0.13634  Biso   1.000  Al
  Al4275   1.0000 0.77277  0.86367  0.09089  Biso   1.000  Al
  Al4276   1.0000 0.72729  0.81820  0.18180  Biso   1.000  Al
  Al4277   1.0000 0.72729  0.86365  0.22725  Biso   1.000  Al
  Al4278   1.0000 0.77275  0.81820  0.22725  Biso   1.000  Al
  Al4279   1.0000 0.77276  0.86366  0.18179  Biso   1.000  Al
  Al4280   1.0000 0.72729  0.81819  0.27271  Biso   1.000  Al
  Al4281   1.0000 0.72729  0.86364  0.31817  Biso   1.000  Al
  Al4282   1.0000 0.77274  0.81819  0.31817  Biso   1.000  Al
  Al4283   1.0000 0.77275  0.86365  0.27271  Biso   1.000  Al
  Al4284   1.0000 0.72728  0.81819  0.36363  Biso   1.000  Al
  Al4285   1.0000 0.72728  0.86364  0.40908  Biso   1.000  Al
  Al4286   1.0000 0.77273  0.81819  0.40908  Biso   1.000  Al
  Al4287   1.0000 0.77274  0.86364  0.36362  Biso   1.000  Al
  Al4288   1.0000 0.72728  0.81819  0.45454  Biso   1.000  Al
  Al4289   1.0000 0.72728  0.86364  0.50000  Biso   1.000  Al
  Al4290   1.0000 0.77273  0.81819  0.50000  Biso   1.000  Al
  Al4291   1.0000 0.77273  0.86364  0.45454  Biso   1.000  Al
  Al4292   1.0000 0.72728  0.81819  0.54546  Biso   1.000  Al
  Al4293   1.0000 0.72728  0.86364  0.59092  Biso   1.000  Al
  Al4294   1.0000 0.77273  0.81819  0.59092  Biso   1.000  Al
  Al4295   1.0000 0.77273  0.86364  0.54546  Biso   1.000  Al
  Al4296   1.0000 0.72728  0.81819  0.63637  Biso   1.000  Al
  Al4297   1.0000 0.72729  0.86364  0.68183  Biso   1.000  Al
  Al4298   1.0000 0.77274  0.81819  0.68183  Biso   1.000  Al
  Al4299   1.0000 0.77274  0.86364  0.63638  Biso   1.000  Al
  Al4300   1.0000 0.72729  0.81819  0.72729  Biso   1.000  Al
  Al4301   1.0000 0.72729  0.86365  0.77275  Biso   1.000  Al
  Al4302   1.0000 0.77275  0.81820  0.77275  Biso   1.000  Al
  Al4303   1.0000 0.77275  0.86365  0.72729  Biso   1.000  Al
  Al4304   1.0000 0.72729  0.81820  0.81820  Biso   1.000  Al
  Al4305   1.0000 0.72730  0.86365  0.86365  Biso   1.000  Al
  Al4306   1.0000 0.77276  0.81821  0.86366  Biso   1.000  Al
  Al4307   1.0000 0.77276  0.86366  0.81821  Biso   1.000  Al
  Al4308   1.0000 0.72730  0.81820  0.90910  Biso   1.000  Al
  Al4309   1.0000 0.72731  0.86366  0.95455  Biso   1.000  Al
  Al4310   1.0000 0.77277  0.81822  0.95456  Biso   1.000  Al
  Al4311   1.0000 0.77277  0.86367  0.90911  Biso   1.000  Al
  Al4312   1.0000 0.72731  0.90911  0.00000  Biso   1.000  Al
  Al4313   1.0000 0.72732  0.95455  0.04545  Biso   1.000  Al
  Al4314   1.0000 0.77279  0.90912  0.04544  Biso   1.000  Al
  Al4315   1.0000 0.77279  0.95456  1.00000  Biso   1.000  Al
  Al4316   1.0000 0.72731  0.90911  0.09089  Biso   1.000  Al
  Al4317   1.0000 0.72731  0.95455  0.13634  Biso   1.000  Al
  Al4318   1.0000 0.77277  0.90911  0.13633  Biso   1.000  Al
  Al4319   1.0000 0.77279  0.95456  0.09088  Biso   1.000  Al
  Al4320   1.0000 0.72730  0.90910  0.18180  Biso   1.000  Al
  Al4321   1.0000 0.72730  0.95455  0.22725  Biso   1.000  Al
  Al4322   1.0000 0.77276  0.90910  0.22724  Biso   1.000  Al
  Al4323   1.0000 0.77277  0.95456  0.18178  Biso   1.000  Al
  Al4324   1.0000 0.72729  0.90910  0.27271  Biso   1.000  Al
  Al4325   1.0000 0.72729  0.95455  0.31817  Biso   1.000  Al
  Al4326   1.0000 0.77274  0.90910  0.31816  Biso   1.000  Al
  Al4327   1.0000 0.77275  0.95455  0.27270  Biso   1.000  Al
  Al4328   1.0000 0.72728  0.90910  0.36363  Biso   1.000  Al
  Al4329   1.0000 0.72728  0.95455  0.40908  Biso   1.000  Al
  Al4330   1.0000 0.77274  0.90909  0.40908  Biso   1.000  Al
  Al4331   1.0000 0.77274  0.95455  0.36362  Biso   1.000  Al
  Al4332   1.0000 0.72728  0.90909  0.45454  Biso   1.000  Al
  Al4333   1.0000 0.72728  0.95455  0.50000  Biso   1.000  Al
  Al4334   1.0000 0.77273  0.90909  0.50000  Biso   1.000  Al
  Al4335   1.0000 0.77273  0.95455  0.45454  Biso   1.000  Al
  Al4336   1.0000 0.72728  0.90909  0.54546  Biso   1.000  Al
  Al4337   1.0000 0.72728  0.95455  0.59092  Biso   1.000  Al
  Al4338   1.0000 0.77274  0.90909  0.59092  Biso   1.000  Al
  Al4339   1.0000 0.77273  0.95455  0.54546  Biso   1.000  Al
  Al4340   1.0000 0.72728  0.90910  0.63637  Biso   1.000  Al
  Al4341   1.0000 0.72729  0.95455  0.68183  Biso   1.000  Al
  Al4342   1.0000 0.77274  0.90910  0.68184  Biso   1.000  Al
  Al4343   1.0000 0.77274  0.95455  0.63638  Biso   1.000  Al
  Al4344   1.0000 0.72729  0.90910  0.72729  Biso   1.000  Al
  Al4345   1.0000 0.72730  0.95455  0.77275  Biso   1.000  Al
  Al4346   1.0000 0.77276  0.90910  0.77276  Biso   1.000  Al
  Al4347   1.0000 0.77275  0.95455  0.72730  Biso   1.000  Al
  Al4348   1.0000 0.72730  0.90910  0.81820  Biso   1.000  Al
  Al4349   1.0000 0.72731  0.95455  0.86366  Biso   1.000  Al
  Al4350   1.0000 0.77277  0.90911  0.86367  Biso   1.000  Al
  Al4351   1.0000 0.77277  0.95456  0.81822  Biso   1.000  Al
  Al4352   1.0000 0.72731  0.90911  0.90911  Biso   1.000  Al
  Al4353   1.0000 0.72732  0.95455  0.95455  Biso   1.000  Al
  Al4354   1.0000 0.77279  0.90912  0.95456  Biso   1.000  Al
  Al4355   1.0000 0.77279  0.95456  0.90912  Biso   1.000  Al
  Al4356   1.0000 0.81829  0.00000  1.00000  Biso   1.000  Al
  Al4357   1.0000 0.81829  0.04542  0.04542  Biso   1.000  Al
  Al4358   1.0000 0.86383  1.00000  0.04538  Biso   1.000  Al
  Al4359   1.0000 0.86383  0.04538  0.00000  Biso   1.000  Al
  Al4360   1.0000 0.81828  0.00000  0.09085  Biso   1.000  Al
  Al4361   1.0000 0.81826  0.04543  0.13631  Biso   1.000  Al
  Al4362   1.0000 0.86380  1.00000  0.13620  Biso   1.000  Al
  Al4363   1.0000 0.86377  0.04539  0.09083  Biso   1.000  Al
  Al4364   1.0000 0.81825  1.00000  0.18175  Biso   1.000  Al
  Al4365   1.0000 0.81822  0.04544  0.22723  Biso   1.000  Al
  Al4366   1.0000 0.86367  1.00000  0.22722  Biso   1.000  Al
  Al4367   1.0000 0.86369  0.04543  0.18174  Biso   1.000  Al
  Al4368   1.0000 0.81821  0.00000  0.27269  Biso   1.000  Al
  Al4369   1.0000 0.81820  0.04545  0.31816  Biso   1.000  Al
  Al4370   1.0000 0.86365  1.00000  0.31816  Biso   1.000  Al
  Al4371   1.0000 0.86366  0.04545  0.27269  Biso   1.000  Al
  Al4372   1.0000 0.81819  1.00000  0.36362  Biso   1.000  Al
  Al4373   1.0000 0.81819  0.04545  0.40908  Biso   1.000  Al
  Al4374   1.0000 0.86364  1.00000  0.40908  Biso   1.000  Al
  Al4375   1.0000 0.86365  0.04545  0.36362  Biso   1.000  Al
  Al4376   1.0000 0.81819  1.00000  0.45454  Biso   1.000  Al
  Al4377   1.0000 0.81819  0.04545  0.50000  Biso   1.000  Al
  Al4378   1.0000 0.86364  0.00000  0.50000  Biso   1.000  Al
  Al4379   1.0000 0.86364  0.04545  0.45454  Biso   1.000  Al
  Al4380   1.0000 0.81819  0.00000  0.54546  Biso   1.000  Al
  Al4381   1.0000 0.81819  0.04545  0.59092  Biso   1.000  Al
  Al4382   1.0000 0.86364  0.00000  0.59092  Biso   1.000  Al
  Al4383   1.0000 0.86364  0.04545  0.54546  Biso   1.000  Al
  Al4384   1.0000 0.81819  0.00000  0.63638  Biso   1.000  Al
  Al4385   1.0000 0.81820  0.04545  0.68184  Biso   1.000  Al
  Al4386   1.0000 0.86365  0.00000  0.68184  Biso   1.000  Al
  Al4387   1.0000 0.86365  0.04545  0.63638  Biso   1.000  Al
  Al4388   1.0000 0.81821  0.00000  0.72731  Biso   1.000  Al
  Al4389   1.0000 0.81822  0.04544  0.77277  Biso   1.000  Al
  Al4390   1.0000 0.86367  1.00000  0.77278  Biso   1.000  Al
  Al4391   1.0000 0.86366  0.04545  0.72731  Biso   1.000  Al
  Al4392   1.0000 0.81825  1.00000  0.81825  Biso   1.000  Al
  Al4393   1.0000 0.81826  0.04543  0.86369  Biso   1.000  Al
  Al4394   1.0000 0.86380  1.00000  0.86380  Biso   1.000  Al
  Al4395   1.0000 0.86369  0.04543  0.81826  Biso   1.000  Al
  Al4396   1.0000 0.81828  1.00000  0.90915  Biso   1.000  Al
  Al4397   1.0000 0.81829  0.04542  0.95458  Biso   1.000  Al
  Al4398   1.0000 0.86383  1.00000  0.95462  Biso   1.000  Al
  Al4399   1.0000 0.86377  0.04539  0.90917  Biso   1.000  Al
  Al4400   1.0000 0.81828  0.09085  0.00000  Biso   1.000  Al
  Al4401   1.0000 0.81826  0.13631  0.04543  Biso   1.000  Al
  Al4402   1.0000 0.86377  0.09083  0.04539  Biso   1.000  Al
  Al4403   1.0000 0.86380  0.13620  0.00000  Biso   1.000  Al
  Al4404   1.0000 0.81826  0.09087  0.09087  Biso   1.000  Al
  Al4405   1.0000 0.81822  0.13633  0.13633  Biso   1.000  Al
  Al4406   1.0000 0.86369  0.09087  0.13631  Biso   1.000  Al
  Al4407   1.0000 0.86369  0.13631  0.09087  Biso   1.000  Al
  Al4408   1.0000 0.81822  0.09088  0.18178  Biso   1.000  Al
  Al4409   1.0000 0.81821  0.13634  0.22724  Biso   1.000  Al
  Al4410   1.0000 0.86367  0.09089  0.22723  Biso   1.000  Al
  Al4411   1.0000 0.86367  0.13633  0.18178  Biso   1.000  Al
  Al4412   1.0000 0.81820  0.09090  0.27270  Biso   1.000  Al
  Al4413   1.0000 0.81820  0.13635  0.31816  Biso   1.000  Al
  Al4414   1.0000 0.86365  0.09090  0.31816  Biso   1.000  Al
  Al4415   1.0000 0.86365  0.13635  0.27270  Biso   1.000  Al
  Al4416   1.0000 0.81819  0.09090  0.36362  Biso   1.000  Al
  Al4417   1.0000 0.81819  0.13636  0.40908  Biso   1.000  Al
  Al4418   1.0000 0.86364  0.09090  0.40908  Biso   1.000  Al
  Al4419   1.0000 0.86365  0.13635  0.36362  Biso   1.000  Al
  Al4420   1.0000 0.81819  0.09091  0.45454  Biso   1.000  Al
  Al4421   1.0000 0.81819  0.13636  0.50000  Biso   1.000  Al
  Al4422   1.0000 0.86364  0.09091  0.50000  Biso   1.000  Al
  Al4423   1.0000 0.86364  0.13636  0.45454  Biso   1.000  Al
  Al4424   1.0000 0.81819  0.09091  0.54546  Biso   1.000  Al
  Al4425   1.0000 0.81819  0.13636  0.59092  Biso   1.000  Al
  Al4426   1.0000 0.86364  0.09090  0.59092  Biso   1.000  Al
  Al4427   1.0000 0.86364  0.13636  0.54546  Biso   1.000  Al
  Al4428   1.0000 0.81819  0.09090  0.63638  Biso   1.000  Al
  Al4429   1.0000 0.81820  0.13635  0.68184  Biso   1.000  Al
  Al4430   1.0000 0.86365  0.09090  0.68184  Biso   1.000  Al
  Al4431   1.0000 0.86365  0.13635  0.63638  Biso   1.000  Al
  Al4432   1.0000 0.81820  0.09090  0.72730  Biso   1.000  Al
  Al4433   1.0000 0.81821  0.13634  0.77276  Biso   1.000  Al
  Al4434   1.0000 0.86367  0.09089  0.77277  Biso   1.000  Al
  Al4435   1.0000 0.86365  0.13635  0.72730  Biso   1.000  Al
  Al4436   1.0000 0.81822  0.09088  0.81822  Biso   1.000  Al
  Al4437   1.0000 0.81822  0.13633  0.86367  Biso   1.000  Al
  Al4438   1.0000 0.86369  0.09087  0.86369  Biso   1.000  Al
  Al4439   1.0000 0.86367  0.13633  0.81822  Biso   1.000  Al
  Al4440   1.0000 0.81826  0.09087  0.90913  Biso   1.000  Al
  Al4441   1.0000 0.81826  0.13631  0.95457  Biso   1.000  Al
  Al4442   1.0000 0.86377  0.09083  0.95461  Biso   1.000  Al
  Al4443   1.0000 0.86369  0.13631  0.90913  Biso   1.000  Al
  Al4444   1.0000 0.81825  0.18175  1.00000  Biso   1.000  Al
  Al4445   1.0000 0.81822  0.22723  0.04544  Biso   1.000  Al
  Al4446   1.0000 0.86369  0.18174  0.04543  Biso   1.000  Al
  Al4447   1.0000 0.86367  0.22722  1.00000  Biso   1.000  Al
  Al4448   1.0000 0.81822  0.18178  0.09088  Biso   1.000  Al
  Al4449   1.0000 0.81821  0.22724  0.13634  Biso   1.000  Al
  Al4450   1.0000 0.86367  0.18178  0.13633  Biso   1.000  Al
  Al4451   1.0000 0.86367  0.22723  0.09089  Biso   1.000  Al
  Al4452   1.0000 0.81821  0.18179  0.18179  Biso   1.000  Al
  Al4453   1.0000 0.81820  0.22725  0.22725  Biso   1.000  Al
  Al4454   1.0000 0.86366  0.18179  0.22724  Biso   1.000  Al
  Al4455   1.0000 0.86366  0.22724  0.18179  Biso   1.000  Al
  Al4456   1.0000 0.81820  0.18180  0.27271  Biso   1.000  Al
  Al4457   1.0000 0.81819  0.22726  0.31817  Biso   1.000  Al
  Al4458   1.0000 0.86365  0.18180  0.31816  Biso   1.000  Al
  Al4459   1.0000 0.86365  0.22725  0.27271  Biso   1.000  Al
  Al4460   1.0000 0.81819  0.18181  0.36362  Biso   1.000  Al
  Al4461   1.0000 0.81819  0.22727  0.40908  Biso   1.000  Al
  Al4462   1.0000 0.86364  0.18181  0.40908  Biso   1.000  Al
  Al4463   1.0000 0.86364  0.22726  0.36362  Biso   1.000  Al
  Al4464   1.0000 0.81819  0.18181  0.45454  Biso   1.000  Al
  Al4465   1.0000 0.81819  0.22727  0.50000  Biso   1.000  Al
  Al4466   1.0000 0.86364  0.18181  0.50000  Biso   1.000  Al
  Al4467   1.0000 0.86364  0.22727  0.45454  Biso   1.000  Al
  Al4468   1.0000 0.81819  0.18181  0.54546  Biso   1.000  Al
  Al4469   1.0000 0.81819  0.22727  0.59092  Biso   1.000  Al
  Al4470   1.0000 0.86364  0.18181  0.59092  Biso   1.000  Al
  Al4471   1.0000 0.86364  0.22727  0.54546  Biso   1.000  Al
  Al4472   1.0000 0.81819  0.18181  0.63638  Biso   1.000  Al
  Al4473   1.0000 0.81819  0.22726  0.68183  Biso   1.000  Al
  Al4474   1.0000 0.86365  0.18180  0.68184  Biso   1.000  Al
  Al4475   1.0000 0.86364  0.22726  0.63638  Biso   1.000  Al
  Al4476   1.0000 0.81820  0.18180  0.72729  Biso   1.000  Al
  Al4477   1.0000 0.81820  0.22725  0.77275  Biso   1.000  Al
  Al4478   1.0000 0.86366  0.18179  0.77276  Biso   1.000  Al
  Al4479   1.0000 0.86365  0.22725  0.72729  Biso   1.000  Al
  Al4480   1.0000 0.81821  0.18179  0.81821  Biso   1.000  Al
  Al4481   1.0000 0.81821  0.22724  0.86366  Biso   1.000  Al
  Al4482   1.0000 0.86367  0.18178  0.86367  Biso   1.000  Al
  Al4483   1.0000 0.86366  0.22724  0.81821  Biso   1.000  Al
  Al4484   1.0000 0.81822  0.18178  0.90912  Biso   1.000  Al
  Al4485   1.0000 0.81822  0.22723  0.95456  Biso   1.000  Al
  Al4486   1.0000 0.86369  0.18174  0.95457  Biso   1.000  Al
  Al4487   1.0000 0.86367  0.22723  0.90911  Biso   1.000  Al
  Al4488   1.0000 0.81821  0.27269  0.00000  Biso   1.000  Al
  Al4489   1.0000 0.81820  0.31816  0.04545  Biso   1.000  Al
  Al4490   1.0000 0.86366  0.27269  0.04545  Biso   1.000  Al
  Al4491   1.0000 0.86365  0.31816  0.00000  Biso   1.000  Al
  Al4492   1.0000 0.81820  0.27270  0.09090  Biso   1.000  Al
  Al4493   1.0000 0.81820  0.31816  0.13635  Biso   1.000  Al
  Al4494   1.0000 0.86365  0.27270  0.13635  Biso   1.000  Al
  Al4495   1.0000 0.86365  0.31816  0.09090  Biso   1.000  Al
  Al4496   1.0000 0.81820  0.27271  0.18180  Biso   1.000  Al
  Al4497   1.0000 0.81819  0.31817  0.22726  Biso   1.000  Al
  Al4498   1.0000 0.86365  0.27271  0.22725  Biso   1.000  Al
  Al4499   1.0000 0.86365  0.31816  0.18180  Biso   1.000  Al
  Al4500   1.0000 0.81819  0.27271  0.27271  Biso   1.000  Al
  Al4501   1.0000 0.81819  0.31817  0.31817  Biso   1.000  Al
  Al4502   1.0000 0.86364  0.27271  0.31817  Biso   1.000  Al
  Al4503   1.0000 0.86364  0.31817  0.27271  Biso   1.000  Al
  Al4504   1.0000 0.81819  0.27272  0.36363  Biso   1.000  Al
  Al4505   1.0000 0.81819  0.31817  0.40909  Biso   1.000  Al
  Al4506   1.0000 0.86364  0.27272  0.40908  Biso   1.000  Al
  Al4507   1.0000 0.86364  0.31817  0.36363  Biso   1.000  Al
  Al4508   1.0000 0.81819  0.27272  0.45454  Biso   1.000  Al
  Al4509   1.0000 0.81819  0.31818  0.50000  Biso   1.000  Al
  Al4510   1.0000 0.86364  0.27272  0.50000  Biso   1.000  Al
  Al4511   1.0000 0.86364  0.31818  0.45454  Biso   1.000  Al
  Al4512   1.0000 0.81819  0.27272  0.54546  Biso   1.000  Al
  Al4513   1.0000 0.81819  0.31817  0.59091  Biso   1.000  Al
  Al4514   1.0000 0.86364  0.27272  0.59092  Biso   1.000  Al
  Al4515   1.0000 0.86364  0.31818  0.54546  Biso   1.000  Al
  Al4516   1.0000 0.81819  0.27272  0.63637  Biso   1.000  Al
  Al4517   1.0000 0.81819  0.31817  0.68183  Biso   1.000  Al
  Al4518   1.0000 0.86364  0.27271  0.68183  Biso   1.000  Al
  Al4519   1.0000 0.86364  0.31817  0.63637  Biso   1.000  Al
  Al4520   1.0000 0.81819  0.27271  0.72729  Biso   1.000  Al
  Al4521   1.0000 0.81819  0.31817  0.77274  Biso   1.000  Al
  Al4522   1.0000 0.86365  0.27271  0.77275  Biso   1.000  Al
  Al4523   1.0000 0.86364  0.31817  0.72729  Biso   1.000  Al
  Al4524   1.0000 0.81820  0.27271  0.81820  Biso   1.000  Al
  Al4525   1.0000 0.81820  0.31816  0.86365  Biso   1.000  Al
  Al4526   1.0000 0.86365  0.27270  0.86365  Biso   1.000  Al
  Al4527   1.0000 0.86365  0.31816  0.81820  Biso   1.000  Al
  Al4528   1.0000 0.81820  0.27270  0.90910  Biso   1.000  Al
  Al4529   1.0000 0.81820  0.31816  0.95455  Biso   1.000  Al
  Al4530   1.0000 0.86366  0.27269  0.95455  Biso   1.000  Al
  Al4531   1.0000 0.86365  0.31816  0.90910  Biso   1.000  Al
  Al4532   1.0000 0.81819  0.36362  0.00000  Biso   1.000  Al
  Al4533   1.0000 0.81819  0.40908  0.04545  Biso   1.000  Al
  Al4534   1.0000 0.86365  0.36362  0.04545  Biso   1.000  Al
  Al4535   1.0000 0.86364  0.40908  1.00000  Biso   1.000  Al
  Al4536   1.0000 0.81819  0.36362  0.09090  Biso   1.000  Al
  Al4537   1.0000 0.81819  0.40908  0.13636  Biso   1.000  Al
  Al4538   1.0000 0.86365  0.36362  0.13635  Biso   1.000  Al
  Al4539   1.0000 0.86364  0.40908  0.09090  Biso   1.000  Al
  Al4540   1.0000 0.81819  0.36362  0.18181  Biso   1.000  Al
  Al4541   1.0000 0.81819  0.40908  0.22727  Biso   1.000  Al
  Al4542   1.0000 0.86364  0.36362  0.22726  Biso   1.000  Al
  Al4543   1.0000 0.86364  0.40908  0.18181  Biso   1.000  Al
  Al4544   1.0000 0.81819  0.36363  0.27272  Biso   1.000  Al
  Al4545   1.0000 0.81819  0.40909  0.31817  Biso   1.000  Al
  Al4546   1.0000 0.86364  0.36363  0.31817  Biso   1.000  Al
  Al4547   1.0000 0.86364  0.40908  0.27272  Biso   1.000  Al
  Al4548   1.0000 0.81819  0.36363  0.36363  Biso   1.000  Al
  Al4549   1.0000 0.81819  0.40909  0.40909  Biso   1.000  Al
  Al4550   1.0000 0.86364  0.36363  0.40909  Biso   1.000  Al
  Al4551   1.0000 0.86364  0.40909  0.36363  Biso   1.000  Al
  Al4552   1.0000 0.81819  0.36363  0.45454  Biso   1.000  Al
  Al4553   1.0000 0.81819  0.40909  0.50000  Biso   1.000  Al
  Al4554   1.0000 0.86364  0.36363  0.50000  Biso   1.000  Al
  Al4555   1.0000 0.86364  0.40909  0.45454  Biso   1.000  Al
  Al4556   1.0000 0.81819  0.36363  0.54546  Biso   1.000  Al
  Al4557   1.0000 0.81819  0.40909  0.59091  Biso   1.000  Al
  Al4558   1.0000 0.86364  0.36363  0.59091  Biso   1.000  Al
  Al4559   1.0000 0.86364  0.40909  0.54546  Biso   1.000  Al
  Al4560   1.0000 0.81819  0.36363  0.63637  Biso   1.000  Al
  Al4561   1.0000 0.81819  0.40909  0.68183  Biso   1.000  Al
  Al4562   1.0000 0.86364  0.36363  0.68183  Biso   1.000  Al
  Al4563   1.0000 0.86364  0.40909  0.63637  Biso   1.000  Al
  Al4564   1.0000 0.81819  0.36363  0.72728  Biso   1.000  Al
  Al4565   1.0000 0.81819  0.40908  0.77273  Biso   1.000  Al
  Al4566   1.0000 0.86364  0.36362  0.77274  Biso   1.000  Al
  Al4567   1.0000 0.86364  0.40908  0.72728  Biso   1.000  Al
  Al4568   1.0000 0.81819  0.36362  0.81819  Biso   1.000  Al
  Al4569   1.0000 0.81819  0.40908  0.86364  Biso   1.000  Al
  Al4570   1.0000 0.86365  0.36362  0.86365  Biso   1.000  Al
  Al4571   1.0000 0.86364  0.40908  0.81819  Biso   1.000  Al
  Al4572   1.0000 0.81819  0.36362  0.90910  Biso   1.000  Al
  Al4573   1.0000 0.81819  0.40908  0.95455  Biso   1.000  Al
  Al4574   1.0000 0.86365  0.36362  0.95455  Biso   1.000  Al
  Al4575   1.0000 0.86364  0.40908  0.90910  Biso   1.000  Al
  Al4576   1.0000 0.81819  0.45454  1.00000  Biso   1.000  Al
  Al4577   1.0000 0.81819  0.50000  0.04545  Biso   1.000  Al
  Al4578   1.0000 0.86364  0.45454  0.04545  Biso   1.000  Al
  Al4579   1.0000 0.86364  0.50000  1.00000  Biso   1.000  Al
  Al4580   1.0000 0.81819  0.45454  0.09091  Biso   1.000  Al
  Al4581   1.0000 0.81819  0.50000  0.13636  Biso   1.000  Al
  Al4582   1.0000 0.86364  0.45454  0.13636  Biso   1.000  Al
  Al4583   1.0000 0.86364  0.50000  0.09091  Biso   1.000  Al
  Al4584   1.0000 0.81819  0.45454  0.18181  Biso   1.000  Al
  Al4585   1.0000 0.81819  0.50000  0.22727  Biso   1.000  Al
  Al4586   1.0000 0.86364  0.45454  0.22727  Biso   1.000  Al
  Al4587   1.0000 0.86364  0.50000  0.18181  Biso   1.000  Al
  Al4588   1.0000 0.81819  0.45454  0.27272  Biso   1.000  Al
  Al4589   1.0000 0.81819  0.50000  0.31818  Biso   1.000  Al
  Al4590   1.0000 0.86364  0.45454  0.31818  Biso   1.000  Al
  Al4591   1.0000 0.86364  0.50000  0.27272  Biso   1.000  Al
  Al4592   1.0000 0.81819  0.45454  0.36363  Biso   1.000  Al
  Al4593   1.0000 0.81819  0.50000  0.40909  Biso   1.000  Al
  Al4594   1.0000 0.86364  0.45454  0.40909  Biso   1.000  Al
  Al4595   1.0000 0.86364  0.50000  0.36363  Biso   1.000  Al
  Al4596   1.0000 0.81819  0.45454  0.45454  Biso   1.000  Al
  Al4597   1.0000 0.81819  0.50000  0.50000  Biso   1.000  Al
  Al4598   1.0000 0.86364  0.45454  0.50000  Biso   1.000  Al
  Al4599   1.0000 0.86364  0.50000  0.45454  Biso   1.000  Al
  Al4600   1.0000 0.81819  0.45454  0.54546  Biso   1.000  Al
  Al4601   1.0000 0.81819  0.50000  0.59091  Biso   1.000  Al
  Al4602   1.0000 0.86364  0.45454  0.59091  Biso   1.000  Al
  Al4603   1.0000 0.86364  0.50000  0.54546  Biso   1.000  Al
  Al4604   1.0000 0.81819  0.45454  0.63637  Biso   1.000  Al
  Al4605   1.0000 0.81819  0.50000  0.68182  Biso   1.000  Al
  Al4606   1.0000 0.86364  0.45454  0.68182  Biso   1.000  Al
  Al4607   1.0000 0.86364  0.50000  0.63637  Biso   1.000  Al
  Al4608   1.0000 0.81819  0.45454  0.72728  Biso   1.000  Al
  Al4609   1.0000 0.81819  0.50000  0.77273  Biso   1.000  Al
  Al4610   1.0000 0.86364  0.45454  0.77273  Biso   1.000  Al
  Al4611   1.0000 0.86364  0.50000  0.72728  Biso   1.000  Al
  Al4612   1.0000 0.81819  0.45454  0.81819  Biso   1.000  Al
  Al4613   1.0000 0.81819  0.50000  0.86364  Biso   1.000  Al
  Al4614   1.0000 0.86364  0.45454  0.86364  Biso   1.000  Al
  Al4615   1.0000 0.86364  0.50000  0.81819  Biso   1.000  Al
  Al4616   1.0000 0.81819  0.45454  0.90909  Biso   1.000  Al
  Al4617   1.0000 0.81819  0.50000  0.95455  Biso   1.000  Al
  Al4618   1.0000 0.86364  0.45454  0.95455  Biso   1.000  Al
  Al4619   1.0000 0.86364  0.50000  0.90909  Biso   1.000  Al
  Al4620   1.0000 0.81819  0.54546  0.00000  Biso   1.000  Al
  Al4621   1.0000 0.81819  0.59092  0.04545  Biso   1.000  Al
  Al4622   1.0000 0.86364  0.54546  0.04545  Biso   1.000  Al
  Al4623   1.0000 0.86364  0.59092  0.00000  Biso   1.000  Al
  Al4624   1.0000 0.81819  0.54546  0.09091  Biso   1.000  Al
  Al4625   1.0000 0.81819  0.59092  0.13636  Biso   1.000  Al
  Al4626   1.0000 0.86364  0.54546  0.13636  Biso   1.000  Al
  Al4627   1.0000 0.86364  0.59092  0.09090  Biso   1.000  Al
  Al4628   1.0000 0.81819  0.54546  0.18181  Biso   1.000  Al
  Al4629   1.0000 0.81819  0.59092  0.22727  Biso   1.000  Al
  Al4630   1.0000 0.86364  0.54546  0.22727  Biso   1.000  Al
  Al4631   1.0000 0.86364  0.59092  0.18181  Biso   1.000  Al
  Al4632   1.0000 0.81819  0.54546  0.27272  Biso   1.000  Al
  Al4633   1.0000 0.81819  0.59091  0.31817  Biso   1.000  Al
  Al4634   1.0000 0.86364  0.54546  0.31818  Biso   1.000  Al
  Al4635   1.0000 0.86364  0.59092  0.27272  Biso   1.000  Al
  Al4636   1.0000 0.81819  0.54546  0.36363  Biso   1.000  Al
  Al4637   1.0000 0.81819  0.59091  0.40909  Biso   1.000  Al
  Al4638   1.0000 0.86364  0.54546  0.40909  Biso   1.000  Al
  Al4639   1.0000 0.86364  0.59091  0.36363  Biso   1.000  Al
  Al4640   1.0000 0.81819  0.54546  0.45454  Biso   1.000  Al
  Al4641   1.0000 0.81819  0.59091  0.50000  Biso   1.000  Al
  Al4642   1.0000 0.86364  0.54546  0.50000  Biso   1.000  Al
  Al4643   1.0000 0.86364  0.59091  0.45454  Biso   1.000  Al
  Al4644   1.0000 0.81819  0.54546  0.54546  Biso   1.000  Al
  Al4645   1.0000 0.81819  0.59091  0.59091  Biso   1.000  Al
  Al4646   1.0000 0.86364  0.54546  0.59091  Biso   1.000  Al
  Al4647   1.0000 0.86364  0.59091  0.54546  Biso   1.000  Al
  Al4648   1.0000 0.81819  0.54546  0.63637  Biso   1.000  Al
  Al4649   1.0000 0.81819  0.59091  0.68183  Biso   1.000  Al
  Al4650   1.0000 0.86364  0.54546  0.68182  Biso   1.000  Al
  Al4651   1.0000 0.86364  0.59091  0.63637  Biso   1.000  Al
  Al4652   1.0000 0.81819  0.54546  0.72728  Biso   1.000  Al
  Al4653   1.0000 0.81819  0.59092  0.77273  Biso   1.000  Al
  Al4654   1.0000 0.86364  0.54546  0.77273  Biso   1.000  Al
  Al4655   1.0000 0.86364  0.59092  0.72728  Biso   1.000  Al
  Al4656   1.0000 0.81819  0.54546  0.81819  Biso   1.000  Al
  Al4657   1.0000 0.81819  0.59092  0.86364  Biso   1.000  Al
  Al4658   1.0000 0.86364  0.54546  0.86364  Biso   1.000  Al
  Al4659   1.0000 0.86364  0.59092  0.81819  Biso   1.000  Al
  Al4660   1.0000 0.81819  0.54546  0.90909  Biso   1.000  Al
  Al4661   1.0000 0.81819  0.59092  0.95455  Biso   1.000  Al
  Al4662   1.0000 0.86364  0.54546  0.95455  Biso   1.000  Al
  Al4663   1.0000 0.86364  0.59092  0.90910  Biso   1.000  Al
  Al4664   1.0000 0.81819  0.63638  0.00000  Biso   1.000  Al
  Al4665   1.0000 0.81820  0.68184  0.04545  Biso   1.000  Al
  Al4666   1.0000 0.86365  0.63638  0.04545  Biso   1.000  Al
  Al4667   1.0000 0.86365  0.68184  0.00000  Biso   1.000  Al
  Al4668   1.0000 0.81819  0.63638  0.09090  Biso   1.000  Al
  Al4669   1.0000 0.81820  0.68184  0.13635  Biso   1.000  Al
  Al4670   1.0000 0.86365  0.63638  0.13635  Biso   1.000  Al
  Al4671   1.0000 0.86365  0.68184  0.09090  Biso   1.000  Al
  Al4672   1.0000 0.81819  0.63638  0.18181  Biso   1.000  Al
  Al4673   1.0000 0.81819  0.68183  0.22726  Biso   1.000  Al
  Al4674   1.0000 0.86364  0.63638  0.22726  Biso   1.000  Al
  Al4675   1.0000 0.86365  0.68184  0.18180  Biso   1.000  Al
  Al4676   1.0000 0.81819  0.63637  0.27272  Biso   1.000  Al
  Al4677   1.0000 0.81819  0.68183  0.31817  Biso   1.000  Al
  Al4678   1.0000 0.86364  0.63637  0.31817  Biso   1.000  Al
  Al4679   1.0000 0.86364  0.68183  0.27271  Biso   1.000  Al
  Al4680   1.0000 0.81819  0.63637  0.36363  Biso   1.000  Al
  Al4681   1.0000 0.81819  0.68183  0.40909  Biso   1.000  Al
  Al4682   1.0000 0.86364  0.63637  0.40909  Biso   1.000  Al
  Al4683   1.0000 0.86364  0.68183  0.36363  Biso   1.000  Al
  Al4684   1.0000 0.81819  0.63637  0.45454  Biso   1.000  Al
  Al4685   1.0000 0.81819  0.68182  0.50000  Biso   1.000  Al
  Al4686   1.0000 0.86364  0.63637  0.50000  Biso   1.000  Al
  Al4687   1.0000 0.86364  0.68182  0.45454  Biso   1.000  Al
  Al4688   1.0000 0.81819  0.63637  0.54546  Biso   1.000  Al
  Al4689   1.0000 0.81819  0.68183  0.59091  Biso   1.000  Al
  Al4690   1.0000 0.86364  0.63637  0.59091  Biso   1.000  Al
  Al4691   1.0000 0.86364  0.68182  0.54546  Biso   1.000  Al
  Al4692   1.0000 0.81819  0.63637  0.63637  Biso   1.000  Al
  Al4693   1.0000 0.81819  0.68183  0.68183  Biso   1.000  Al
  Al4694   1.0000 0.86364  0.63637  0.68183  Biso   1.000  Al
  Al4695   1.0000 0.86364  0.68183  0.63637  Biso   1.000  Al
  Al4696   1.0000 0.81819  0.63637  0.72728  Biso   1.000  Al
  Al4697   1.0000 0.81819  0.68183  0.77274  Biso   1.000  Al
  Al4698   1.0000 0.86364  0.63638  0.77274  Biso   1.000  Al
  Al4699   1.0000 0.86364  0.68183  0.72729  Biso   1.000  Al
  Al4700   1.0000 0.81819  0.63638  0.81819  Biso   1.000  Al
  Al4701   1.0000 0.81820  0.68184  0.86365  Biso   1.000  Al
  Al4702   1.0000 0.86365  0.63638  0.86365  Biso   1.000  Al
  Al4703   1.0000 0.86365  0.68184  0.81820  Biso   1.000  Al
  Al4704   1.0000 0.81819  0.63638  0.90910  Biso   1.000  Al
  Al4705   1.0000 0.81820  0.68184  0.95455  Biso   1.000  Al
  Al4706   1.0000 0.86365  0.63638  0.95455  Biso   1.000  Al
  Al4707   1.0000 0.86365  0.68184  0.90910  Biso   1.000  Al
  Al4708   1.0000 0.81821  0.72731  0.00000  Biso   1.000  Al
  Al4709   1.0000 0.81822  0.77277  0.04544  Biso   1.000  Al
  Al4710   1.0000 0.86366  0.72731  0.04545  Biso   1.000  Al
  Al4711   1.0000 0.86367  0.77278  0.00000  Biso   1.000  Al
  Al4712   1.0000 0.81820  0.72730  0.09090  Biso   1.000  Al
  Al4713   1.0000 0.81821  0.77276  0.13634  Biso   1.000  Al
  Al4714   1.0000 0.86365  0.72730  0.13635  Biso   1.000  Al
  Al4715   1.0000 0.86367  0.77277  0.09089  Biso   1.000  Al
  Al4716   1.0000 0.81820  0.72729  0.18180  Biso   1.000  Al
  Al4717   1.0000 0.81820  0.77275  0.22725  Biso   1.000  Al
  Al4718   1.0000 0.86365  0.72729  0.22725  Biso   1.000  Al
  Al4719   1.0000 0.86366  0.77276  0.18179  Biso   1.000  Al
  Al4720   1.0000 0.81819  0.72729  0.27271  Biso   1.000  Al
  Al4721   1.0000 0.81819  0.77274  0.31817  Biso   1.000  Al
  Al4722   1.0000 0.86364  0.72729  0.31817  Biso   1.000  Al
  Al4723   1.0000 0.86365  0.77275  0.27271  Biso   1.000  Al
  Al4724   1.0000 0.81819  0.72728  0.36363  Biso   1.000  Al
  Al4725   1.0000 0.81819  0.77273  0.40908  Biso   1.000  Al
  Al4726   1.0000 0.86364  0.72728  0.40908  Biso   1.000  Al
  Al4727   1.0000 0.86364  0.77274  0.36362  Biso   1.000  Al
  Al4728   1.0000 0.81819  0.72728  0.45454  Biso   1.000  Al
  Al4729   1.0000 0.81819  0.77273  0.50000  Biso   1.000  Al
  Al4730   1.0000 0.86364  0.72728  0.50000  Biso   1.000  Al
  Al4731   1.0000 0.86364  0.77273  0.45454  Biso   1.000  Al
  Al4732   1.0000 0.81819  0.72728  0.54546  Biso   1.000  Al
  Al4733   1.0000 0.81819  0.77273  0.59092  Biso   1.000  Al
  Al4734   1.0000 0.86364  0.72728  0.59092  Biso   1.000  Al
  Al4735   1.0000 0.86364  0.77273  0.54546  Biso   1.000  Al
  Al4736   1.0000 0.81819  0.72728  0.63637  Biso   1.000  Al
  Al4737   1.0000 0.81819  0.77274  0.68183  Biso   1.000  Al
  Al4738   1.0000 0.86364  0.72729  0.68183  Biso   1.000  Al
  Al4739   1.0000 0.86364  0.77274  0.63638  Biso   1.000  Al
  Al4740   1.0000 0.81819  0.72729  0.72729  Biso   1.000  Al
  Al4741   1.0000 0.81820  0.77275  0.77275  Biso   1.000  Al
  Al4742   1.0000 0.86365  0.72729  0.77275  Biso   1.000  Al
  Al4743   1.0000 0.86365  0.77275  0.72729  Biso   1.000  Al
  Al4744   1.0000 0.81820  0.72729  0.81820  Biso   1.000  Al
  Al4745   1.0000 0.81821  0.77276  0.86366  Biso   1.000  Al
  Al4746   1.0000 0.86365  0.72730  0.86365  Biso   1.000  Al
  Al4747   1.0000 0.86366  0.77276  0.81821  Biso   1.000  Al
  Al4748   1.0000 0.81820  0.72730  0.90910  Biso   1.000  Al
  Al4749   1.0000 0.81822  0.77277  0.95456  Biso   1.000  Al
  Al4750   1.0000 0.86366  0.72731  0.95455  Biso   1.000  Al
  Al4751   1.0000 0.86367  0.77277  0.90911  Biso   1.000  Al
  Al4752   1.0000 0.81825  0.81825  0.00000  Biso   1.000  Al
  Al4753   1.0000 0.81826  0.86369  0.04543  Biso   1.000  Al
  Al4754   1.0000 0.86369  0.81826  0.04543  Biso   1.000  Al
  Al4755   1.0000 0.86380  0.86380  1.00000  Biso   1.000  Al
  Al4756   1.0000 0.81822  0.81822  0.09088  Biso   1.000  Al
  Al4757   1.0000 0.81822  0.86367  0.13633  Biso   1.000  Al
  Al4758   1.0000 0.86367  0.81822  0.13633  Biso   1.000  Al
  Al4759   1.0000 0.86369  0.86369  0.09087  Biso   1.000  Al
  Al4760   1.0000 0.81821  0.81821  0.18179  Biso   1.000  Al
  Al4761   1.0000 0.81821  0.86366  0.22724  Biso   1.000  Al
  Al4762   1.0000 0.86366  0.81821  0.22724  Biso   1.000  Al
  Al4763   1.0000 0.86367  0.86367  0.18178  Biso   1.000  Al
  Al4764   1.0000 0.81820  0.81820  0.27271  Biso   1.000  Al
  Al4765   1.0000 0.81820  0.86365  0.31816  Biso   1.000  Al
  Al4766   1.0000 0.86365  0.81820  0.31816  Biso   1.000  Al
  Al4767   1.0000 0.86365  0.86365  0.27270  Biso   1.000  Al
  Al4768   1.0000 0.81819  0.81819  0.36362  Biso   1.000  Al
  Al4769   1.0000 0.81819  0.86364  0.40908  Biso   1.000  Al
  Al4770   1.0000 0.86364  0.81819  0.40908  Biso   1.000  Al
  Al4771   1.0000 0.86365  0.86365  0.36362  Biso   1.000  Al
  Al4772   1.0000 0.81819  0.81819  0.45454  Biso   1.000  Al
  Al4773   1.0000 0.81819  0.86364  0.50000  Biso   1.000  Al
  Al4774   1.0000 0.86364  0.81819  0.50000  Biso   1.000  Al
  Al4775   1.0000 0.86364  0.86364  0.45454  Biso   1.000  Al
  Al4776   1.0000 0.81819  0.81819  0.54546  Biso   1.000  Al
  Al4777   1.0000 0.81819  0.86364  0.59092  Biso   1.000  Al
  Al4778   1.0000 0.86364  0.81819  0.59092  Biso   1.000  Al
  Al4779   1.0000 0.86364  0.86364  0.54546  Biso   1.000  Al
  Al4780   1.0000 0.81819  0.81819  0.63638  Biso   1.000  Al
  Al4781   1.0000 0.81820  0.86365  0.68184  Biso   1.000  Al
  Al4782   1.0000 0.86365  0.81820  0.68184  Biso   1.000  Al
  Al4783   1.0000 0.86365  0.86365  0.63638  Biso   1.000  Al
  Al4784   1.0000 0.81820  0.81820  0.72729  Biso   1.000  Al
  Al4785   1.0000 0.81821  0.86366  0.77276  Biso   1.000  Al
  Al4786   1.0000 0.86366  0.81821  0.77276  Biso   1.000  Al
  Al4787   1.0000 0.86365  0.86365  0.72730  Biso   1.000  Al
  Al4788   1.0000 0.81821  0.81821  0.81821  Biso   1.000  Al
  Al4789   1.0000 0.81822  0.86367  0.86367  Biso   1.000  Al
  Al4790   1.0000 0.86367  0.81822  0.86367  Biso   1.000  Al
  Al4791   1.0000 0.86367  0.86367  0.81822  Biso   1.000  Al
  Al4792   1.0000 0.81822  0.81822  0.90912  Biso   1.000  Al
  Al4793   1.0000 0.81826  0.86369  0.95457  Biso   1.000  Al
  Al4794   1.0000 0.86369  0.81826  0.95457  Biso   1.000  Al
  Al4795   1.0000 0.86369  0.86369  0.90913  Biso   1.000  Al
  Al4796   1.0000 0.81828  0.90915  0.00000  Biso   1.000  Al
  Al4797   1.0000 0.81829  0.95458  0.04542  Biso   1.000  Al
  Al4798   1.0000 0.86377  0.90917  0.04539  Biso   1.000  Al
  Al4799   1.0000 0.86383  0.95462  0.00000  Biso   1.000  Al
  Al4800   1.0000 0.81826  0.90913  0.09087  Biso   1.000  Al
  Al4801   1.0000 0.81826  0.95457  0.13631  Biso   1.000  Al
  Al4802   1.0000 0.86369  0.90913  0.13631  Biso   1.000  Al
  Al4803   1.0000 0.86377  0.95461  0.09083  Biso   1.000  Al
  Al4804   1.0000 0.81822  0.90912  0.18178  Biso   1.000  Al
  Al4805   1.0000 0.81822  0.95456  0.22723  Biso   1.000  Al
  Al4806   1.0000 0.86367  0.90911  0.22723  Biso   1.000  Al
  Al4807   1.0000 0.86369  0.95457  0.18174  Biso   1.000  Al
  Al4808   1.0000 0.81820  0.90910  0.27270  Biso   1.000  Al
  Al4809   1.0000 0.81820  0.95455  0.31816  Biso   1.000  Al
  Al4810   1.0000 0.86365  0.90910  0.31816  Biso   1.000  Al
  Al4811   1.0000 0.86366  0.95455  0.27269  Biso   1.000  Al
  Al4812   1.0000 0.81819  0.90910  0.36362  Biso   1.000  Al
  Al4813   1.0000 0.81819  0.95455  0.40908  Biso   1.000  Al
  Al4814   1.0000 0.86364  0.90910  0.40908  Biso   1.000  Al
  Al4815   1.0000 0.86365  0.95455  0.36362  Biso   1.000  Al
  Al4816   1.0000 0.81819  0.90909  0.45454  Biso   1.000  Al
  Al4817   1.0000 0.81819  0.95455  0.50000  Biso   1.000  Al
  Al4818   1.0000 0.86364  0.90909  0.50000  Biso   1.000  Al
  Al4819   1.0000 0.86364  0.95455  0.45454  Biso   1.000  Al
  Al4820   1.0000 0.81819  0.90909  0.54546  Biso   1.000  Al
  Al4821   1.0000 0.81819  0.95455  0.59092  Biso   1.000  Al
  Al4822   1.0000 0.86364  0.90910  0.59092  Biso   1.000  Al
  Al4823   1.0000 0.86364  0.95455  0.54546  Biso   1.000  Al
  Al4824   1.0000 0.81819  0.90910  0.63638  Biso   1.000  Al
  Al4825   1.0000 0.81820  0.95455  0.68184  Biso   1.000  Al
  Al4826   1.0000 0.86365  0.90910  0.68184  Biso   1.000  Al
  Al4827   1.0000 0.86365  0.95455  0.63638  Biso   1.000  Al
  Al4828   1.0000 0.81820  0.90910  0.72730  Biso   1.000  Al
  Al4829   1.0000 0.81822  0.95456  0.77277  Biso   1.000  Al
  Al4830   1.0000 0.86367  0.90911  0.77277  Biso   1.000  Al
  Al4831   1.0000 0.86366  0.95455  0.72731  Biso   1.000  Al
  Al4832   1.0000 0.81822  0.90912  0.81822  Biso   1.000  Al
  Al4833   1.0000 0.81826  0.95457  0.86369  Biso   1.000  Al
  Al4834   1.0000 0.86369  0.90913  0.86369  Biso   1.000  Al
  Al4835   1.0000 0.86369  0.95457  0.81826  Biso   1.000  Al
  Al4836   1.0000 0.81826  0.90913  0.90913  Biso   1.000  Al
  Al4837   1.0000 0.81829  0.95458  0.95458  Biso   1.000  Al
  Al4838   1.0000 0.86377  0.90917  0.95461  Biso   1.000  Al
  Al4839   1.0000 0.86377  0.95461  0.90917  Biso   1.000  Al
  Al4840   1.0000 0.90945  1.00000  1.00000  Biso   1.000  Al
  Al4841   1.0000 0.90925  0.04540  0.04540  Biso   1.000  Al
  Al4842   1.0000 0.95549  1.00000  0.04451  Biso   1.000  Al
  Al4843   1.0000 0.95549  0.04451  0.00000  Biso   1.000  Al
  Al4844   1.0000 0.90956  1.00000  0.09044  Biso   1.000  Al
  Al4845   1.0000 0.90917  0.04539  0.13623  Biso   1.000  Al
  Al4846   1.0000 0.95462  0.00000  0.13617  Biso   1.000  Al
  Al4847   1.0000 0.95460  0.04540  0.09075  Biso   1.000  Al
  Al4848   1.0000 0.90915  0.00000  0.18172  Biso   1.000  Al
  Al4849   1.0000 0.90912  0.04544  0.22721  Biso   1.000  Al
  Al4850   1.0000 0.95456  1.00000  0.22721  Biso   1.000  Al
  Al4851   1.0000 0.95458  0.04542  0.18171  Biso   1.000  Al
  Al4852   1.0000 0.90911  1.00000  0.27269  Biso   1.000  Al
  Al4853   1.0000 0.90910  0.04545  0.31815  Biso   1.000  Al
  Al4854   1.0000 0.95455  1.00000  0.31815  Biso   1.000  Al
  Al4855   1.0000 0.95455  0.04545  0.27268  Biso   1.000  Al
  Al4856   1.0000 0.90910  1.00000  0.36362  Biso   1.000  Al
  Al4857   1.0000 0.90910  0.04545  0.40908  Biso   1.000  Al
  Al4858   1.0000 0.95455  1.00000  0.40908  Biso   1.000  Al
  Al4859   1.0000 0.95455  0.04545  0.36362  Biso   1.000  Al
  Al4860   1.0000 0.90909  1.00000  0.45454  Biso   1.000  Al
  Al4861   1.0000 0.90909  0.04545  0.50000  Biso   1.000  Al
  Al4862   1.0000 0.95455  0.00000  0.50000  Biso   1.000  Al
  Al4863   1.0000 0.95455  0.04545  0.45454  Biso   1.000  Al
  Al4864   1.0000 0.90909  1.00000  0.54546  Biso   1.000  Al
  Al4865   1.0000 0.90910  0.04545  0.59092  Biso   1.000  Al
  Al4866   1.0000 0.95455  1.00000  0.59092  Biso   1.000  Al
  Al4867   1.0000 0.95455  0.04545  0.54546  Biso   1.000  Al
  Al4868   1.0000 0.90910  1.00000  0.63638  Biso   1.000  Al
  Al4869   1.0000 0.90910  0.04545  0.68185  Biso   1.000  Al
  Al4870   1.0000 0.95455  0.00000  0.68185  Biso   1.000  Al
  Al4871   1.0000 0.95455  0.04545  0.63638  Biso   1.000  Al
  Al4872   1.0000 0.90911  1.00000  0.72731  Biso   1.000  Al
  Al4873   1.0000 0.90912  0.04544  0.77279  Biso   1.000  Al
  Al4874   1.0000 0.95456  1.00000  0.77279  Biso   1.000  Al
  Al4875   1.0000 0.95455  0.04545  0.72732  Biso   1.000  Al
  Al4876   1.0000 0.90915  1.00000  0.81828  Biso   1.000  Al
  Al4877   1.0000 0.90917  0.04539  0.86377  Biso   1.000  Al
  Al4878   1.0000 0.95462  1.00000  0.86383  Biso   1.000  Al
  Al4879   1.0000 0.95458  0.04542  0.81829  Biso   1.000  Al
  Al4880   1.0000 0.90956  1.00000  0.90956  Biso   1.000  Al
  Al4881   1.0000 0.90925  0.04540  0.95460  Biso   1.000  Al
  Al4882   1.0000 0.95549  1.00000  0.95549  Biso   1.000  Al
  Al4883   1.0000 0.95460  0.04540  0.90925  Biso   1.000  Al
  Al4884   1.0000 0.90956  0.09044  0.00000  Biso   1.000  Al
  Al4885   1.0000 0.90917  0.13623  0.04539  Biso   1.000  Al
  Al4886   1.0000 0.95460  0.09075  0.04540  Biso   1.000  Al
  Al4887   1.0000 0.95462  0.13617  0.00000  Biso   1.000  Al
  Al4888   1.0000 0.90914  0.09086  0.09086  Biso   1.000  Al
  Al4889   1.0000 0.90913  0.13631  0.13631  Biso   1.000  Al
  Al4890   1.0000 0.95461  0.09083  0.13623  Biso   1.000  Al
  Al4891   1.0000 0.95461  0.13623  0.09083  Biso   1.000  Al
  Al4892   1.0000 0.90913  0.09087  0.18174  Biso   1.000  Al
  Al4893   1.0000 0.90911  0.13633  0.22723  Biso   1.000  Al
  Al4894   1.0000 0.95456  0.09088  0.22721  Biso   1.000  Al
  Al4895   1.0000 0.95457  0.13631  0.18174  Biso   1.000  Al
  Al4896   1.0000 0.90911  0.09089  0.27269  Biso   1.000  Al
  Al4897   1.0000 0.90910  0.13635  0.31816  Biso   1.000  Al
  Al4898   1.0000 0.95455  0.09090  0.31815  Biso   1.000  Al
  Al4899   1.0000 0.95455  0.13634  0.27269  Biso   1.000  Al
  Al4900   1.0000 0.90910  0.09090  0.36362  Biso   1.000  Al
  Al4901   1.0000 0.90910  0.13636  0.40908  Biso   1.000  Al
  Al4902   1.0000 0.95455  0.09090  0.40908  Biso   1.000  Al
  Al4903   1.0000 0.95455  0.13635  0.36362  Biso   1.000  Al
  Al4904   1.0000 0.90909  0.09091  0.45454  Biso   1.000  Al
  Al4905   1.0000 0.90909  0.13636  0.50000  Biso   1.000  Al
  Al4906   1.0000 0.95455  0.09091  0.50000  Biso   1.000  Al
  Al4907   1.0000 0.95455  0.13636  0.45454  Biso   1.000  Al
  Al4908   1.0000 0.90909  0.09091  0.54546  Biso   1.000  Al
  Al4909   1.0000 0.90910  0.13636  0.59092  Biso   1.000  Al
  Al4910   1.0000 0.95455  0.09090  0.59092  Biso   1.000  Al
  Al4911   1.0000 0.95455  0.13636  0.54546  Biso   1.000  Al
  Al4912   1.0000 0.90910  0.09090  0.63638  Biso   1.000  Al
  Al4913   1.0000 0.90910  0.13635  0.68184  Biso   1.000  Al
  Al4914   1.0000 0.95455  0.09090  0.68185  Biso   1.000  Al
  Al4915   1.0000 0.95455  0.13635  0.63638  Biso   1.000  Al
  Al4916   1.0000 0.90911  0.09089  0.72731  Biso   1.000  Al
  Al4917   1.0000 0.90911  0.13633  0.77277  Biso   1.000  Al
  Al4918   1.0000 0.95456  0.09088  0.77279  Biso   1.000  Al
  Al4919   1.0000 0.95455  0.13634  0.72731  Biso   1.000  Al
  Al4920   1.0000 0.90913  0.09087  0.81826  Biso   1.000  Al
  Al4921   1.0000 0.90913  0.13631  0.86369  Biso   1.000  Al
  Al4922   1.0000 0.95461  0.09083  0.86377  Biso   1.000  Al
  Al4923   1.0000 0.95457  0.13631  0.81826  Biso   1.000  Al
  Al4924   1.0000 0.90914  0.09086  0.90914  Biso   1.000  Al
  Al4925   1.0000 0.90917  0.13623  0.95461  Biso   1.000  Al
  Al4926   1.0000 0.95460  0.09075  0.95460  Biso   1.000  Al
  Al4927   1.0000 0.95461  0.13623  0.90917  Biso   1.000  Al
  Al4928   1.0000 0.90915  0.18172  0.00000  Biso   1.000  Al
  Al4929   1.0000 0.90912  0.22721  0.04544  Biso   1.000  Al
  Al4930   1.0000 0.95458  0.18171  0.04542  Biso   1.000  Al
  Al4931   1.0000 0.95456  0.22721  0.00000  Biso   1.000  Al
  Al4932   1.0000 0.90913  0.18174  0.09087  Biso   1.000  Al
  Al4933   1.0000 0.90911  0.22723  0.13633  Biso   1.000  Al
  Al4934   1.0000 0.95457  0.18174  0.13631  Biso   1.000  Al
  Al4935   1.0000 0.95456  0.22721  0.09088  Biso   1.000  Al
  Al4936   1.0000 0.90912  0.18178  0.18178  Biso   1.000  Al
  Al4937   1.0000 0.90910  0.22724  0.22724  Biso   1.000  Al
  Al4938   1.0000 0.95456  0.18178  0.22723  Biso   1.000  Al
  Al4939   1.0000 0.95456  0.22723  0.18178  Biso   1.000  Al
  Al4940   1.0000 0.90910  0.18180  0.27270  Biso   1.000  Al
  Al4941   1.0000 0.90910  0.22726  0.31816  Biso   1.000  Al
  Al4942   1.0000 0.95455  0.18180  0.31816  Biso   1.000  Al
  Al4943   1.0000 0.95455  0.22725  0.27270  Biso   1.000  Al
  Al4944   1.0000 0.90910  0.18181  0.36362  Biso   1.000  Al
  Al4945   1.0000 0.90909  0.22726  0.40908  Biso   1.000  Al
  Al4946   1.0000 0.95455  0.18181  0.40908  Biso   1.000  Al
  Al4947   1.0000 0.95455  0.22726  0.36362  Biso   1.000  Al
  Al4948   1.0000 0.90909  0.18181  0.45454  Biso   1.000  Al
  Al4949   1.0000 0.90909  0.22727  0.50000  Biso   1.000  Al
  Al4950   1.0000 0.95455  0.18181  0.50000  Biso   1.000  Al
  Al4951   1.0000 0.95455  0.22727  0.45454  Biso   1.000  Al
  Al4952   1.0000 0.90909  0.18181  0.54546  Biso   1.000  Al
  Al4953   1.0000 0.90909  0.22726  0.59092  Biso   1.000  Al
  Al4954   1.0000 0.95455  0.18181  0.59092  Biso   1.000  Al
  Al4955   1.0000 0.95455  0.22727  0.54546  Biso   1.000  Al
  Al4956   1.0000 0.90910  0.18181  0.63638  Biso   1.000  Al
  Al4957   1.0000 0.90910  0.22726  0.68184  Biso   1.000  Al
  Al4958   1.0000 0.95455  0.18180  0.68184  Biso   1.000  Al
  Al4959   1.0000 0.95455  0.22726  0.63638  Biso   1.000  Al
  Al4960   1.0000 0.90910  0.18180  0.72730  Biso   1.000  Al
  Al4961   1.0000 0.90910  0.22724  0.77276  Biso   1.000  Al
  Al4962   1.0000 0.95456  0.18178  0.77277  Biso   1.000  Al
  Al4963   1.0000 0.95455  0.22725  0.72730  Biso   1.000  Al
  Al4964   1.0000 0.90912  0.18178  0.81822  Biso   1.000  Al
  Al4965   1.0000 0.90911  0.22723  0.86367  Biso   1.000  Al
  Al4966   1.0000 0.95457  0.18174  0.86369  Biso   1.000  Al
  Al4967   1.0000 0.95456  0.22723  0.81822  Biso   1.000  Al
  Al4968   1.0000 0.90913  0.18174  0.90913  Biso   1.000  Al
  Al4969   1.0000 0.90912  0.22721  0.95456  Biso   1.000  Al
  Al4970   1.0000 0.95458  0.18171  0.95458  Biso   1.000  Al
  Al4971   1.0000 0.95456  0.22721  0.90912  Biso   1.000  Al
  Al4972   1.0000 0.90911  0.27269  1.00000  Biso   1.000  Al
  Al4973   1.0000 0.90910  0.31815  0.04545  Biso   1.000  Al
  Al4974   1.0000 0.95455  0.27268  0.04545  Biso   1.000  Al
  Al4975   1.0000 0.95455  0.31815  0.00000  Biso   1.000  Al
  Al4976   1.0000 0.90911  0.27269  0.09089  Biso   1.000  Al
  Al4977   1.0000 0.90910  0.31816  0.13635  Biso   1.000  Al
  Al4978   1.0000 0.95455  0.27269  0.13634  Biso   1.000  Al
  Al4979   1.0000 0.95455  0.31815  0.09090  Biso   1.000  Al
  Al4980   1.0000 0.90910  0.27270  0.18180  Biso   1.000  Al
  Al4981   1.0000 0.90910  0.31816  0.22726  Biso   1.000  Al
  Al4982   1.0000 0.95455  0.27270  0.22725  Biso   1.000  Al
  Al4983   1.0000 0.95455  0.31816  0.18180  Biso   1.000  Al
  Al4984   1.0000 0.90910  0.27271  0.27271  Biso   1.000  Al
  Al4985   1.0000 0.90910  0.31817  0.31817  Biso   1.000  Al
  Al4986   1.0000 0.95455  0.27271  0.31817  Biso   1.000  Al
  Al4987   1.0000 0.95455  0.31817  0.27271  Biso   1.000  Al
  Al4988   1.0000 0.90910  0.27272  0.36363  Biso   1.000  Al
  Al4989   1.0000 0.90909  0.31817  0.40908  Biso   1.000  Al
  Al4990   1.0000 0.95455  0.27272  0.40908  Biso   1.000  Al
  Al4991   1.0000 0.95455  0.31817  0.36363  Biso   1.000  Al
  Al4992   1.0000 0.90909  0.27272  0.45454  Biso   1.000  Al
  Al4993   1.0000 0.90909  0.31818  0.50000  Biso   1.000  Al
  Al4994   1.0000 0.95455  0.27272  0.50000  Biso   1.000  Al
  Al4995   1.0000 0.95455  0.31817  0.45454  Biso   1.000  Al
  Al4996   1.0000 0.90909  0.27272  0.54546  Biso   1.000  Al
  Al4997   1.0000 0.90909  0.31817  0.59092  Biso   1.000  Al
  Al4998   1.0000 0.95455  0.27272  0.59092  Biso   1.000  Al
  Al4999   1.0000 0.95455  0.31817  0.54546  Biso   1.000  Al
  Al5000   1.0000 0.90910  0.27272  0.63637  Biso   1.000  Al
  Al5001   1.0000 0.90910  0.31817  0.68183  Biso   1.000  Al
  Al5002   1.0000 0.95455  0.27271  0.68183  Biso   1.000  Al
  Al5003   1.0000 0.95455  0.31817  0.63637  Biso   1.000  Al
  Al5004   1.0000 0.90910  0.27271  0.72729  Biso   1.000  Al
  Al5005   1.0000 0.90910  0.31816  0.77274  Biso   1.000  Al
  Al5006   1.0000 0.95455  0.27270  0.77275  Biso   1.000  Al
  Al5007   1.0000 0.95455  0.31817  0.72729  Biso   1.000  Al
  Al5008   1.0000 0.90910  0.27270  0.81820  Biso   1.000  Al
  Al5009   1.0000 0.90910  0.31816  0.86365  Biso   1.000  Al
  Al5010   1.0000 0.95455  0.27269  0.86366  Biso   1.000  Al
  Al5011   1.0000 0.95455  0.31816  0.81820  Biso   1.000  Al
  Al5012   1.0000 0.90911  0.27269  0.90911  Biso   1.000  Al
  Al5013   1.0000 0.90910  0.31815  0.95455  Biso   1.000  Al
  Al5014   1.0000 0.95455  0.27268  0.95455  Biso   1.000  Al
  Al5015   1.0000 0.95455  0.31815  0.90910  Biso   1.000  Al
  Al5016   1.0000 0.90910  0.36362  1.00000  Biso   1.000  Al
  Al5017   1.0000 0.90910  0.40908  0.04545  Biso   1.000  Al
  Al5018   1.0000 0.95455  0.36362  0.04545  Biso   1.000  Al
  Al5019   1.0000 0.95455  0.40908  0.00000  Biso   1.000  Al
  Al5020   1.0000 0.90910  0.36362  0.09090  Biso   1.000  Al
  Al5021   1.0000 0.90910  0.40908  0.13636  Biso   1.000  Al
  Al5022   1.0000 0.95455  0.36362  0.13635  Biso   1.000  Al
  Al5023   1.0000 0.95455  0.40908  0.09090  Biso   1.000  Al
  Al5024   1.0000 0.90910  0.36362  0.18181  Biso   1.000  Al
  Al5025   1.0000 0.90909  0.40908  0.22726  Biso   1.000  Al
  Al5026   1.0000 0.95455  0.36362  0.22726  Biso   1.000  Al
  Al5027   1.0000 0.95455  0.40908  0.18181  Biso   1.000  Al
  Al5028   1.0000 0.90910  0.36363  0.27272  Biso   1.000  Al
  Al5029   1.0000 0.90909  0.40908  0.31817  Biso   1.000  Al
  Al5030   1.0000 0.95455  0.36363  0.31817  Biso   1.000  Al
  Al5031   1.0000 0.95455  0.40908  0.27272  Biso   1.000  Al
  Al5032   1.0000 0.90909  0.36363  0.36363  Biso   1.000  Al
  Al5033   1.0000 0.90909  0.40909  0.40909  Biso   1.000  Al
  Al5034   1.0000 0.95455  0.36363  0.40909  Biso   1.000  Al
  Al5035   1.0000 0.95455  0.40909  0.36363  Biso   1.000  Al
  Al5036   1.0000 0.90909  0.36363  0.45454  Biso   1.000  Al
  Al5037   1.0000 0.90909  0.40909  0.50000  Biso   1.000  Al
  Al5038   1.0000 0.95455  0.36363  0.50000  Biso   1.000  Al
  Al5039   1.0000 0.95455  0.40909  0.45454  Biso   1.000  Al
  Al5040   1.0000 0.90909  0.36363  0.54546  Biso   1.000  Al
  Al5041   1.0000 0.90909  0.40909  0.59091  Biso   1.000  Al
  Al5042   1.0000 0.95455  0.36363  0.59091  Biso   1.000  Al
  Al5043   1.0000 0.95455  0.40909  0.54546  Biso   1.000  Al
  Al5044   1.0000 0.90909  0.36363  0.63637  Biso   1.000  Al
  Al5045   1.0000 0.90909  0.40908  0.68183  Biso   1.000  Al
  Al5046   1.0000 0.95455  0.36363  0.68183  Biso   1.000  Al
  Al5047   1.0000 0.95455  0.40909  0.63637  Biso   1.000  Al
  Al5048   1.0000 0.90910  0.36363  0.72728  Biso   1.000  Al
  Al5049   1.0000 0.90909  0.40908  0.77274  Biso   1.000  Al
  Al5050   1.0000 0.95455  0.36362  0.77274  Biso   1.000  Al
  Al5051   1.0000 0.95455  0.40908  0.72728  Biso   1.000  Al
  Al5052   1.0000 0.90910  0.36362  0.81819  Biso   1.000  Al
  Al5053   1.0000 0.90910  0.40908  0.86364  Biso   1.000  Al
  Al5054   1.0000 0.95455  0.36362  0.86365  Biso   1.000  Al
  Al5055   1.0000 0.95455  0.40908  0.81819  Biso   1.000  Al
  Al5056   1.0000 0.90910  0.36362  0.90910  Biso   1.000  Al
  Al5057   1.0000 0.90910  0.40908  0.95455  Biso   1.000  Al
  Al5058   1.0000 0.95455  0.36362  0.95455  Biso   1.000  Al
  Al5059   1.0000 0.95455  0.40908  0.90910  Biso   1.000  Al
  Al5060   1.0000 0.90909  0.45454  1.00000  Biso   1.000  Al
  Al5061   1.0000 0.90909  0.50000  0.04545  Biso   1.000  Al
  Al5062   1.0000 0.95455  0.45454  0.04545  Biso   1.000  Al
  Al5063   1.0000 0.95455  0.50000  1.00000  Biso   1.000  Al
  Al5064   1.0000 0.90909  0.45454  0.09091  Biso   1.000  Al
  Al5065   1.0000 0.90909  0.50000  0.13636  Biso   1.000  Al
  Al5066   1.0000 0.95455  0.45454  0.13636  Biso   1.000  Al
  Al5067   1.0000 0.95455  0.50000  0.09091  Biso   1.000  Al
  Al5068   1.0000 0.90909  0.45454  0.18181  Biso   1.000  Al
  Al5069   1.0000 0.90909  0.50000  0.22727  Biso   1.000  Al
  Al5070   1.0000 0.95455  0.45454  0.22727  Biso   1.000  Al
  Al5071   1.0000 0.95455  0.50000  0.18181  Biso   1.000  Al
  Al5072   1.0000 0.90909  0.45454  0.27272  Biso   1.000  Al
  Al5073   1.0000 0.90909  0.50000  0.31818  Biso   1.000  Al
  Al5074   1.0000 0.95455  0.45454  0.31817  Biso   1.000  Al
  Al5075   1.0000 0.95455  0.50000  0.27272  Biso   1.000  Al
  Al5076   1.0000 0.90909  0.45454  0.36363  Biso   1.000  Al
  Al5077   1.0000 0.90909  0.50000  0.40909  Biso   1.000  Al
  Al5078   1.0000 0.95455  0.45454  0.40909  Biso   1.000  Al
  Al5079   1.0000 0.95455  0.50000  0.36363  Biso   1.000  Al
  Al5080   1.0000 0.90909  0.45454  0.45454  Biso   1.000  Al
  Al5081   1.0000 0.90909  0.50000  0.50000  Biso   1.000  Al
  Al5082   1.0000 0.95455  0.45454  0.50000  Biso   1.000  Al
  Al5083   1.0000 0.95455  0.50000  0.45454  Biso   1.000  Al
  Al5084   1.0000 0.90909  0.45454  0.54546  Biso   1.000  Al
  Al5085   1.0000 0.90909  0.50000  0.59091  Biso   1.000  Al
  Al5086   1.0000 0.95455  0.45454  0.59091  Biso   1.000  Al
  Al5087   1.0000 0.95455  0.50000  0.54546  Biso   1.000  Al
  Al5088   1.0000 0.90909  0.45454  0.63637  Biso   1.000  Al
  Al5089   1.0000 0.90909  0.50000  0.68182  Biso   1.000  Al
  Al5090   1.0000 0.95455  0.45454  0.68183  Biso   1.000  Al
  Al5091   1.0000 0.95455  0.50000  0.63637  Biso   1.000  Al
  Al5092   1.0000 0.90909  0.45454  0.72728  Biso   1.000  Al
  Al5093   1.0000 0.90909  0.50000  0.77273  Biso   1.000  Al
  Al5094   1.0000 0.95455  0.45454  0.77273  Biso   1.000  Al
  Al5095   1.0000 0.95455  0.50000  0.72728  Biso   1.000  Al
  Al5096   1.0000 0.90909  0.45454  0.81819  Biso   1.000  Al
  Al5097   1.0000 0.90909  0.50000  0.86364  Biso   1.000  Al
  Al5098   1.0000 0.95455  0.45454  0.86364  Biso   1.000  Al
  Al5099   1.0000 0.95455  0.50000  0.81819  Biso   1.000  Al
  Al5100   1.0000 0.90909  0.45454  0.90909  Biso   1.000  Al
  Al5101   1.0000 0.90909  0.50000  0.95455  Biso   1.000  Al
  Al5102   1.0000 0.95455  0.45454  0.95455  Biso   1.000  Al
  Al5103   1.0000 0.95455  0.50000  0.90909  Biso   1.000  Al
  Al5104   1.0000 0.90909  0.54546  0.00000  Biso   1.000  Al
  Al5105   1.0000 0.90910  0.59092  0.04545  Biso   1.000  Al
  Al5106   1.0000 0.95455  0.54546  0.04545  Biso   1.000  Al
  Al5107   1.0000 0.95455  0.59092  1.00000  Biso   1.000  Al
  Al5108   1.0000 0.90909  0.54546  0.09091  Biso   1.000  Al
  Al5109   1.0000 0.90910  0.59092  0.13636  Biso   1.000  Al
  Al5110   1.0000 0.95455  0.54546  0.13636  Biso   1.000  Al
  Al5111   1.0000 0.95455  0.59092  0.09090  Biso   1.000  Al
  Al5112   1.0000 0.90909  0.54546  0.18181  Biso   1.000  Al
  Al5113   1.0000 0.90909  0.59092  0.22726  Biso   1.000  Al
  Al5114   1.0000 0.95455  0.54546  0.22727  Biso   1.000  Al
  Al5115   1.0000 0.95455  0.59092  0.18181  Biso   1.000  Al
  Al5116   1.0000 0.90909  0.54546  0.27272  Biso   1.000  Al
  Al5117   1.0000 0.90909  0.59092  0.31817  Biso   1.000  Al
  Al5118   1.0000 0.95455  0.54546  0.31817  Biso   1.000  Al
  Al5119   1.0000 0.95455  0.59092  0.27272  Biso   1.000  Al
  Al5120   1.0000 0.90909  0.54546  0.36363  Biso   1.000  Al
  Al5121   1.0000 0.90909  0.59091  0.40909  Biso   1.000  Al
  Al5122   1.0000 0.95455  0.54546  0.40909  Biso   1.000  Al
  Al5123   1.0000 0.95455  0.59091  0.36363  Biso   1.000  Al
  Al5124   1.0000 0.90909  0.54546  0.45454  Biso   1.000  Al
  Al5125   1.0000 0.90909  0.59091  0.50000  Biso   1.000  Al
  Al5126   1.0000 0.95455  0.54546  0.50000  Biso   1.000  Al
  Al5127   1.0000 0.95455  0.59091  0.45454  Biso   1.000  Al
  Al5128   1.0000 0.90909  0.54546  0.54546  Biso   1.000  Al
  Al5129   1.0000 0.90909  0.59091  0.59091  Biso   1.000  Al
  Al5130   1.0000 0.95455  0.54546  0.59091  Biso   1.000  Al
  Al5131   1.0000 0.95455  0.59091  0.54546  Biso   1.000  Al
  Al5132   1.0000 0.90909  0.54546  0.63637  Biso   1.000  Al
  Al5133   1.0000 0.90909  0.59092  0.68183  Biso   1.000  Al
  Al5134   1.0000 0.95455  0.54546  0.68183  Biso   1.000  Al
  Al5135   1.0000 0.95455  0.59091  0.63637  Biso   1.000  Al
  Al5136   1.0000 0.90909  0.54546  0.72728  Biso   1.000  Al
  Al5137   1.0000 0.90909  0.59092  0.77274  Biso   1.000  Al
  Al5138   1.0000 0.95455  0.54546  0.77273  Biso   1.000  Al
  Al5139   1.0000 0.95455  0.59092  0.72728  Biso   1.000  Al
  Al5140   1.0000 0.90909  0.54546  0.81819  Biso   1.000  Al
  Al5141   1.0000 0.90910  0.59092  0.86364  Biso   1.000  Al
  Al5142   1.0000 0.95455  0.54546  0.86364  Biso   1.000  Al
  Al5143   1.0000 0.95455  0.59092  0.81819  Biso   1.000  Al
  Al5144   1.0000 0.90909  0.54546  0.90909  Biso   1.000  Al
  Al5145   1.0000 0.90910  0.59092  0.95455  Biso   1.000  Al
  Al5146   1.0000 0.95455  0.54546  0.95455  Biso   1.000  Al
  Al5147   1.0000 0.95455  0.59092  0.90910  Biso   1.000  Al
  Al5148   1.0000 0.90910  0.63638  0.00000  Biso   1.000  Al
  Al5149   1.0000 0.90910  0.68185  0.04545  Biso   1.000  Al
  Al5150   1.0000 0.95455  0.63638  0.04545  Biso   1.000  Al
  Al5151   1.0000 0.95455  0.68185  1.00000  Biso   1.000  Al
  Al5152   1.0000 0.90910  0.63638  0.09090  Biso   1.000  Al
  Al5153   1.0000 0.90910  0.68184  0.13635  Biso   1.000  Al
  Al5154   1.0000 0.95455  0.63638  0.13635  Biso   1.000  Al
  Al5155   1.0000 0.95455  0.68185  0.09090  Biso   1.000  Al
  Al5156   1.0000 0.90910  0.63638  0.18181  Biso   1.000  Al
  Al5157   1.0000 0.90910  0.68184  0.22726  Biso   1.000  Al
  Al5158   1.0000 0.95455  0.63638  0.22726  Biso   1.000  Al
  Al5159   1.0000 0.95455  0.68184  0.18180  Biso   1.000  Al
  Al5160   1.0000 0.90910  0.63637  0.27272  Biso   1.000  Al
  Al5161   1.0000 0.90910  0.68183  0.31817  Biso   1.000  Al
  Al5162   1.0000 0.95455  0.63637  0.31817  Biso   1.000  Al
  Al5163   1.0000 0.95455  0.68183  0.27271  Biso   1.000  Al
  Al5164   1.0000 0.90909  0.63637  0.36363  Biso   1.000  Al
  Al5165   1.0000 0.90909  0.68183  0.40908  Biso   1.000  Al
  Al5166   1.0000 0.95455  0.63637  0.40909  Biso   1.000  Al
  Al5167   1.0000 0.95455  0.68183  0.36363  Biso   1.000  Al
  Al5168   1.0000 0.90909  0.63637  0.45454  Biso   1.000  Al
  Al5169   1.0000 0.90909  0.68182  0.50000  Biso   1.000  Al
  Al5170   1.0000 0.95455  0.63637  0.50000  Biso   1.000  Al
  Al5171   1.0000 0.95455  0.68183  0.45454  Biso   1.000  Al
  Al5172   1.0000 0.90909  0.63637  0.54546  Biso   1.000  Al
  Al5173   1.0000 0.90909  0.68183  0.59092  Biso   1.000  Al
  Al5174   1.0000 0.95455  0.63637  0.59091  Biso   1.000  Al
  Al5175   1.0000 0.95455  0.68183  0.54546  Biso   1.000  Al
  Al5176   1.0000 0.90909  0.63637  0.63637  Biso   1.000  Al
  Al5177   1.0000 0.90910  0.68183  0.68183  Biso   1.000  Al
  Al5178   1.0000 0.95455  0.63637  0.68183  Biso   1.000  Al
  Al5179   1.0000 0.95455  0.68183  0.63637  Biso   1.000  Al
  Al5180   1.0000 0.90910  0.63637  0.72728  Biso   1.000  Al
  Al5181   1.0000 0.90910  0.68184  0.77274  Biso   1.000  Al
  Al5182   1.0000 0.95455  0.63638  0.77274  Biso   1.000  Al
  Al5183   1.0000 0.95455  0.68183  0.72729  Biso   1.000  Al
  Al5184   1.0000 0.90910  0.63638  0.81819  Biso   1.000  Al
  Al5185   1.0000 0.90910  0.68184  0.86365  Biso   1.000  Al
  Al5186   1.0000 0.95455  0.63638  0.86365  Biso   1.000  Al
  Al5187   1.0000 0.95455  0.68184  0.81820  Biso   1.000  Al
  Al5188   1.0000 0.90910  0.63638  0.90910  Biso   1.000  Al
  Al5189   1.0000 0.90910  0.68185  0.95455  Biso   1.000  Al
  Al5190   1.0000 0.95455  0.63638  0.95455  Biso   1.000  Al
  Al5191   1.0000 0.95455  0.68185  0.90910  Biso   1.000  Al
  Al5192   1.0000 0.90911  0.72731  1.00000  Biso   1.000  Al
  Al5193   1.0000 0.90912  0.77279  0.04544  Biso   1.000  Al
  Al5194   1.0000 0.95455  0.72732  0.04545  Biso   1.000  Al
  Al5195   1.0000 0.95456  0.77279  1.00000  Biso   1.000  Al
  Al5196   1.0000 0.90911  0.72731  0.09089  Biso   1.000  Al
  Al5197   1.0000 0.90911  0.77277  0.13633  Biso   1.000  Al
  Al5198   1.0000 0.95455  0.72731  0.13634  Biso   1.000  Al
  Al5199   1.0000 0.95456  0.77279  0.09088  Biso   1.000  Al
  Al5200   1.0000 0.90910  0.72730  0.18180  Biso   1.000  Al
  Al5201   1.0000 0.90910  0.77276  0.22724  Biso   1.000  Al
  Al5202   1.0000 0.95455  0.72730  0.22725  Biso   1.000  Al
  Al5203   1.0000 0.95456  0.77277  0.18178  Biso   1.000  Al
  Al5204   1.0000 0.90910  0.72729  0.27271  Biso   1.000  Al
  Al5205   1.0000 0.90910  0.77274  0.31816  Biso   1.000  Al
  Al5206   1.0000 0.95455  0.72729  0.31817  Biso   1.000  Al
  Al5207   1.0000 0.95455  0.77275  0.27270  Biso   1.000  Al
  Al5208   1.0000 0.90910  0.72728  0.36363  Biso   1.000  Al
  Al5209   1.0000 0.90909  0.77274  0.40908  Biso   1.000  Al
  Al5210   1.0000 0.95455  0.72728  0.40908  Biso   1.000  Al
  Al5211   1.0000 0.95455  0.77274  0.36362  Biso   1.000  Al
  Al5212   1.0000 0.90909  0.72728  0.45454  Biso   1.000  Al
  Al5213   1.0000 0.90909  0.77273  0.50000  Biso   1.000  Al
  Al5214   1.0000 0.95455  0.72728  0.50000  Biso   1.000  Al
  Al5215   1.0000 0.95455  0.77273  0.45454  Biso   1.000  Al
  Al5216   1.0000 0.90909  0.72728  0.54546  Biso   1.000  Al
  Al5217   1.0000 0.90909  0.77274  0.59092  Biso   1.000  Al
  Al5218   1.0000 0.95455  0.72728  0.59092  Biso   1.000  Al
  Al5219   1.0000 0.95455  0.77273  0.54546  Biso   1.000  Al
  Al5220   1.0000 0.90910  0.72728  0.63637  Biso   1.000  Al
  Al5221   1.0000 0.90910  0.77274  0.68184  Biso   1.000  Al
  Al5222   1.0000 0.95455  0.72729  0.68183  Biso   1.000  Al
  Al5223   1.0000 0.95455  0.77274  0.63638  Biso   1.000  Al
  Al5224   1.0000 0.90910  0.72729  0.72729  Biso   1.000  Al
  Al5225   1.0000 0.90910  0.77276  0.77276  Biso   1.000  Al
  Al5226   1.0000 0.95455  0.72730  0.77275  Biso   1.000  Al
  Al5227   1.0000 0.95455  0.77275  0.72730  Biso   1.000  Al
  Al5228   1.0000 0.90910  0.72730  0.81820  Biso   1.000  Al
  Al5229   1.0000 0.90911  0.77277  0.86367  Biso   1.000  Al
  Al5230   1.0000 0.95455  0.72731  0.86366  Biso   1.000  Al
  Al5231   1.0000 0.95456  0.77277  0.81822  Biso   1.000  Al
  Al5232   1.0000 0.90911  0.72731  0.90911  Biso   1.000  Al
  Al5233   1.0000 0.90912  0.77279  0.95456  Biso   1.000  Al
  Al5234   1.0000 0.95455  0.72732  0.95455  Biso   1.000  Al
  Al5235   1.0000 0.95456  0.77279  0.90912  Biso   1.000  Al
  Al5236   1.0000 0.90915  0.81828  1.00000  Biso   1.000  Al
  Al5237   1.0000 0.90917  0.86377  0.04539  Biso   1.000  Al
  Al5238   1.0000 0.95458  0.81829  0.04542  Biso   1.000  Al
  Al5239   1.0000 0.95462  0.86383  1.00000  Biso   1.000  Al
  Al5240   1.0000 0.90913  0.81826  0.09087  Biso   1.000  Al
  Al5241   1.0000 0.90913  0.86369  0.13631  Biso   1.000  Al
  Al5242   1.0000 0.95457  0.81826  0.13631  Biso   1.000  Al
  Al5243   1.0000 0.95461  0.86377  0.09083  Biso   1.000  Al
  Al5244   1.0000 0.90912  0.81822  0.18178  Biso   1.000  Al
  Al5245   1.0000 0.90911  0.86367  0.22723  Biso   1.000  Al
  Al5246   1.0000 0.95456  0.81822  0.22723  Biso   1.000  Al
  Al5247   1.0000 0.95457  0.86369  0.18174  Biso   1.000  Al
  Al5248   1.0000 0.90910  0.81820  0.27270  Biso   1.000  Al
  Al5249   1.0000 0.90910  0.86365  0.31816  Biso   1.000  Al
  Al5250   1.0000 0.95455  0.81820  0.31816  Biso   1.000  Al
  Al5251   1.0000 0.95455  0.86366  0.27269  Biso   1.000  Al
  Al5252   1.0000 0.90910  0.81819  0.36362  Biso   1.000  Al
  Al5253   1.0000 0.90910  0.86364  0.40908  Biso   1.000  Al
  Al5254   1.0000 0.95455  0.81819  0.40908  Biso   1.000  Al
  Al5255   1.0000 0.95455  0.86365  0.36362  Biso   1.000  Al
  Al5256   1.0000 0.90909  0.81819  0.45454  Biso   1.000  Al
  Al5257   1.0000 0.90909  0.86364  0.50000  Biso   1.000  Al
  Al5258   1.0000 0.95455  0.81819  0.50000  Biso   1.000  Al
  Al5259   1.0000 0.95455  0.86364  0.45454  Biso   1.000  Al
  Al5260   1.0000 0.90909  0.81819  0.54546  Biso   1.000  Al
  Al5261   1.0000 0.90910  0.86364  0.59092  Biso   1.000  Al
  Al5262   1.0000 0.95455  0.81819  0.59092  Biso   1.000  Al
  Al5263   1.0000 0.95455  0.86364  0.54546  Biso   1.000  Al
  Al5264   1.0000 0.90910  0.81819  0.63638  Biso   1.000  Al
  Al5265   1.0000 0.90910  0.86365  0.68184  Biso   1.000  Al
  Al5266   1.0000 0.95455  0.81820  0.68184  Biso   1.000  Al
  Al5267   1.0000 0.95455  0.86365  0.63638  Biso   1.000  Al
  Al5268   1.0000 0.90910  0.81820  0.72730  Biso   1.000  Al
  Al5269   1.0000 0.90911  0.86367  0.77277  Biso   1.000  Al
  Al5270   1.0000 0.95456  0.81822  0.77277  Biso   1.000  Al
  Al5271   1.0000 0.95455  0.86366  0.72731  Biso   1.000  Al
  Al5272   1.0000 0.90912  0.81822  0.81822  Biso   1.000  Al
  Al5273   1.0000 0.90913  0.86369  0.86369  Biso   1.000  Al
  Al5274   1.0000 0.95457  0.81826  0.86369  Biso   1.000  Al
  Al5275   1.0000 0.95457  0.86369  0.81826  Biso   1.000  Al
  Al5276   1.0000 0.90913  0.81826  0.90913  Biso   1.000  Al
  Al5277   1.0000 0.90917  0.86377  0.95461  Biso   1.000  Al
  Al5278   1.0000 0.95458  0.81829  0.95458  Biso   1.000  Al
  Al5279   1.0000 0.95461  0.86377  0.90917  Biso   1.000  Al
  Al5280   1.0000 0.90956  0.90956  0.00000  Biso   1.000  Al
  Al5281   1.0000 0.90925  0.95460  0.04540  Biso   1.000  Al
  Al5282   1.0000 0.95460  0.90925  0.04540  Biso   1.000  Al
  Al5283   1.0000 0.95549  0.95549  1.00000  Biso   1.000  Al
  Al5284   1.0000 0.90914  0.90914  0.09086  Biso   1.000  Al
  Al5285   1.0000 0.90917  0.95461  0.13623  Biso   1.000  Al
  Al5286   1.0000 0.95461  0.90917  0.13623  Biso   1.000  Al
  Al5287   1.0000 0.95460  0.95460  0.09075  Biso   1.000  Al
  Al5288   1.0000 0.90913  0.90913  0.18174  Biso   1.000  Al
  Al5289   1.0000 0.90912  0.95456  0.22721  Biso   1.000  Al
  Al5290   1.0000 0.95456  0.90912  0.22721  Biso   1.000  Al
  Al5291   1.0000 0.95458  0.95458  0.18171  Biso   1.000  Al
  Al5292   1.0000 0.90911  0.90911  0.27269  Biso   1.000  Al
  Al5293   1.0000 0.90910  0.95455  0.31815  Biso   1.000  Al
  Al5294   1.0000 0.95455  0.90910  0.31815  Biso   1.000  Al
  Al5295   1.0000 0.95455  0.95455  0.27268  Biso   1.000  Al
  Al5296   1.0000 0.90910  0.90910  0.36362  Biso   1.000  Al
  Al5297   1.0000 0.90910  0.95455  0.40908  Biso   1.000  Al
  Al5298   1.0000 0.95455  0.90910  0.40908  Biso   1.000  Al
  Al5299   1.0000 0.95455  0.95455  0.36362  Biso   1.000  Al
  Al5300   1.0000 0.90909  0.90909  0.45454  Biso   1.000  Al
  Al5301   1.0000 0.90909  0.95455  0.50000  Biso   1.000  Al
  Al5302   1.0000 0.95455  0.90909  0.50000  Biso   1.000  Al
  Al5303   1.0000 0.95455  0.95455  0.45454  Biso   1.000  Al
  Al5304   1.0000 0.90909  0.90909  0.54546  Biso   1.000  Al
  Al5305   1.0000 0.90910  0.95455  0.59092  Biso   1.000  Al
  Al5306   1.0000 0.95455  0.90910  0.59092  Biso   1.000  Al
  Al5307   1.0000 0.95455  0.95455  0.54546  Biso   1.000  Al
  Al5308   1.0000 0.90910  0.90910  0.63638  Biso   1.000  Al
  Al5309   1.0000 0.90910  0.95455  0.68185  Biso   1.000  Al
  Al5310   1.0000 0.95455  0.90910  0.68185  Biso   1.000  Al
  Al5311   1.0000 0.95455  0.95455  0.63638  Biso   1.000  Al
  Al5312   1.0000 0.90911  0.90911  0.72731  Biso   1.000  Al
  Al5313   1.0000 0.90912  0.95456  0.77279  Biso   1.000  Al
  Al5314   1.0000 0.95456  0.90912  0.77279  Biso   1.000  Al
  Al5315   1.0000 0.95455  0.95455  0.72732  Biso   1.000  Al
  Al5316   1.0000 0.90913  0.90913  0.81826  Biso   1.000  Al
  Al5317   1.0000 0.90917  0.95461  0.86377  Biso   1.000  Al
  Al5318   1.0000 0.95461  0.90917  0.86377  Biso   1.000  Al
  Al5319   1.0000 0.95458  0.95458  0.81829  Biso   1.000  Al
  Al5320   1.0000 0.90914  0.90914  0.90914  Biso   1.000  Al
  Al5321   1.0000 0.90925  0.95460  0.95460  Biso   1.000  Al
  Al5322   1.0000 0.95460  0.90925  0.95460  Biso   1.000  Al
  Al5323   1.0000 0.95460  0.95460  0.90925  Biso   1.000  Al
